
---------- Begin Simulation Statistics ----------
final_tick                                92612325000                       # Number of ticks from beginning of simulation (restored from checkpoints and never reset)
host_inst_rate                                 138053                       # Simulator instruction rate (inst/s)
host_mem_usage                                 700348                       # Number of bytes of host memory used
host_op_rate                                   138325                       # Simulator op (including micro ops) rate (op/s)
host_seconds                                   724.36                       # Real time elapsed on the host
host_tick_rate                              127854254                       # Simulator tick rate (ticks/s)
sim_freq                                 1000000000000                       # Frequency of simulated ticks
sim_insts                                   100000001                       # Number of instructions simulated
sim_ops                                     100196856                       # Number of ops (including micro ops) simulated
sim_seconds                                  0.092612                       # Number of seconds simulated
sim_ticks                                 92612325000                       # Number of ticks simulated
system.cpu.branchPred.BTBCorrect                    0                       # Number of correct BTB predictions (this stat may not work properly.
system.cpu.branchPred.BTBHitPct             99.706586                       # BTB Hit Percentage
system.cpu.branchPred.BTBHits                 2093606                       # Number of BTB hits
system.cpu.branchPred.BTBLookups              2099767                       # Number of BTB lookups
system.cpu.branchPred.RASInCorrect                  5                       # Number of incorrect RAS predictions.
system.cpu.branchPred.condIncorrect             81377                       # Number of conditional branches incorrect
system.cpu.branchPred.condPredicted           3725513                       # Number of conditional branches predicted
system.cpu.branchPred.indirectHits                324                       # Number of indirect target hits.
system.cpu.branchPred.indirectLookups             826                       # Number of indirect predictor lookups.
system.cpu.branchPred.indirectMisses              502                       # Number of indirect misses.
system.cpu.branchPred.lookups                 4475397                       # Number of BP lookups
system.cpu.branchPred.usedRAS                   65429                       # Number of times the RAS was used to get a target.
system.cpu.branchPredindirectMispredicted          206                       # Number of mispredicted indirect branches.
system.cpu.committedInsts                   100000001                       # Number of instructions committed
system.cpu.committedOps                     100196856                       # Number of ops (including micro ops) committed
system.cpu.cpi                               1.852246                       # CPI: cycles per instruction
system.cpu.discardedOps                        190623                       # Number of ops (including micro ops) which were discarded before commit
system.cpu.dtb.accesses                             0                       # DTB accesses
system.cpu.dtb.align_faults                         0                       # Number of TLB faults due to alignment restrictions
system.cpu.dtb.domain_faults                        0                       # Number of TLB faults due to domain restrictions
system.cpu.dtb.flush_entries                        0                       # Number of entries that have been flushed from TLB
system.cpu.dtb.flush_tlb                            0                       # Number of times complete TLB was flushed
system.cpu.dtb.flush_tlb_asid                       0                       # Number of times TLB was flushed by ASID
system.cpu.dtb.flush_tlb_mva                        0                       # Number of times TLB was flushed by MVA
system.cpu.dtb.flush_tlb_mva_asid                   0                       # Number of times TLB was flushed by MVA & ASID
system.cpu.dtb.hits                                 0                       # DTB hits
system.cpu.dtb.inst_accesses                        0                       # ITB inst accesses
system.cpu.dtb.inst_hits                            0                       # ITB inst hits
system.cpu.dtb.inst_misses                          0                       # ITB inst misses
system.cpu.dtb.misses                               0                       # DTB misses
system.cpu.dtb.perms_faults                         0                       # Number of TLB faults due to permissions restrictions
system.cpu.dtb.prefetch_faults                      0                       # Number of TLB faults due to prefetch
system.cpu.dtb.read_accesses                        0                       # DTB read accesses
system.cpu.dtb.read_hits                            0                       # DTB read hits
system.cpu.dtb.read_misses                          0                       # DTB read misses
system.cpu.dtb.stage2_mmu.stage2_tlb.accesses            0                       # DTB accesses
system.cpu.dtb.stage2_mmu.stage2_tlb.align_faults            0                       # Number of TLB faults due to alignment restrictions
system.cpu.dtb.stage2_mmu.stage2_tlb.domain_faults            0                       # Number of TLB faults due to domain restrictions
system.cpu.dtb.stage2_mmu.stage2_tlb.flush_entries            0                       # Number of entries that have been flushed from TLB
system.cpu.dtb.stage2_mmu.stage2_tlb.flush_tlb            0                       # Number of times complete TLB was flushed
system.cpu.dtb.stage2_mmu.stage2_tlb.flush_tlb_asid            0                       # Number of times TLB was flushed by ASID
system.cpu.dtb.stage2_mmu.stage2_tlb.flush_tlb_mva            0                       # Number of times TLB was flushed by MVA
system.cpu.dtb.stage2_mmu.stage2_tlb.flush_tlb_mva_asid            0                       # Number of times TLB was flushed by MVA & ASID
system.cpu.dtb.stage2_mmu.stage2_tlb.hits            0                       # DTB hits
system.cpu.dtb.stage2_mmu.stage2_tlb.inst_accesses            0                       # ITB inst accesses
system.cpu.dtb.stage2_mmu.stage2_tlb.inst_hits            0                       # ITB inst hits
system.cpu.dtb.stage2_mmu.stage2_tlb.inst_misses            0                       # ITB inst misses
system.cpu.dtb.stage2_mmu.stage2_tlb.misses            0                       # DTB misses
system.cpu.dtb.stage2_mmu.stage2_tlb.perms_faults            0                       # Number of TLB faults due to permissions restrictions
system.cpu.dtb.stage2_mmu.stage2_tlb.prefetch_faults            0                       # Number of TLB faults due to prefetch
system.cpu.dtb.stage2_mmu.stage2_tlb.read_accesses            0                       # DTB read accesses
system.cpu.dtb.stage2_mmu.stage2_tlb.read_hits            0                       # DTB read hits
system.cpu.dtb.stage2_mmu.stage2_tlb.read_misses            0                       # DTB read misses
system.cpu.dtb.stage2_mmu.stage2_tlb.walker.walkRequestOrigin_Requested::Data            0                       # Table walker requests started/completed, data/inst
system.cpu.dtb.stage2_mmu.stage2_tlb.walker.walkRequestOrigin_Requested::Inst            0                       # Table walker requests started/completed, data/inst
system.cpu.dtb.stage2_mmu.stage2_tlb.walker.walkRequestOrigin_Requested::total            0                       # Table walker requests started/completed, data/inst
system.cpu.dtb.stage2_mmu.stage2_tlb.walker.walkRequestOrigin_Completed::Data            0                       # Table walker requests started/completed, data/inst
system.cpu.dtb.stage2_mmu.stage2_tlb.walker.walkRequestOrigin_Completed::Inst            0                       # Table walker requests started/completed, data/inst
system.cpu.dtb.stage2_mmu.stage2_tlb.walker.walkRequestOrigin_Completed::total            0                       # Table walker requests started/completed, data/inst
system.cpu.dtb.stage2_mmu.stage2_tlb.walker.walkRequestOrigin::total            0                       # Table walker requests started/completed, data/inst
system.cpu.dtb.stage2_mmu.stage2_tlb.walker.walks            0                       # Table walker walks requested
system.cpu.dtb.stage2_mmu.stage2_tlb.write_accesses            0                       # DTB write accesses
system.cpu.dtb.stage2_mmu.stage2_tlb.write_hits            0                       # DTB write hits
system.cpu.dtb.stage2_mmu.stage2_tlb.write_misses            0                       # DTB write misses
system.cpu.dtb.walker.walkRequestOrigin_Requested::Data            0                       # Table walker requests started/completed, data/inst
system.cpu.dtb.walker.walkRequestOrigin_Requested::Inst            0                       # Table walker requests started/completed, data/inst
system.cpu.dtb.walker.walkRequestOrigin_Requested::total            0                       # Table walker requests started/completed, data/inst
system.cpu.dtb.walker.walkRequestOrigin_Completed::Data            0                       # Table walker requests started/completed, data/inst
system.cpu.dtb.walker.walkRequestOrigin_Completed::Inst            0                       # Table walker requests started/completed, data/inst
system.cpu.dtb.walker.walkRequestOrigin_Completed::total            0                       # Table walker requests started/completed, data/inst
system.cpu.dtb.walker.walkRequestOrigin::total            0                       # Table walker requests started/completed, data/inst
system.cpu.dtb.walker.walks                         0                       # Table walker walks requested
system.cpu.dtb.write_accesses                       0                       # DTB write accesses
system.cpu.dtb.write_hits                           0                       # DTB write hits
system.cpu.dtb.write_misses                         0                       # DTB write misses
system.cpu.fetch2.amo_instructions                  0                       # Number of memory atomic instructions successfully decoded
system.cpu.fetch2.fp_instructions                   0                       # Number of floating point instructions successfully decoded
system.cpu.fetch2.int_instructions           42606924                       # Number of integer instructions successfully decoded
system.cpu.fetch2.load_instructions          43399323                       # Number of memory load instructions successfully decoded
system.cpu.fetch2.store_instructions         10999247                       # Number of memory store instructions successfully decoded
system.cpu.fetch2.vec_instructions                  0                       # Number of SIMD instructions successfully decoded
system.cpu.idleCycles                        51913970                       # Total number of cycles that the object has spent stopped
system.cpu.ipc                               0.539885                       # IPC: instructions per cycle
system.cpu.itb.accesses                             0                       # DTB accesses
system.cpu.itb.align_faults                         0                       # Number of TLB faults due to alignment restrictions
system.cpu.itb.domain_faults                        0                       # Number of TLB faults due to domain restrictions
system.cpu.itb.flush_entries                        0                       # Number of entries that have been flushed from TLB
system.cpu.itb.flush_tlb                            0                       # Number of times complete TLB was flushed
system.cpu.itb.flush_tlb_asid                       0                       # Number of times TLB was flushed by ASID
system.cpu.itb.flush_tlb_mva                        0                       # Number of times TLB was flushed by MVA
system.cpu.itb.flush_tlb_mva_asid                   0                       # Number of times TLB was flushed by MVA & ASID
system.cpu.itb.hits                                 0                       # DTB hits
system.cpu.itb.inst_accesses                        0                       # ITB inst accesses
system.cpu.itb.inst_hits                            0                       # ITB inst hits
system.cpu.itb.inst_misses                          0                       # ITB inst misses
system.cpu.itb.misses                               0                       # DTB misses
system.cpu.itb.perms_faults                         0                       # Number of TLB faults due to permissions restrictions
system.cpu.itb.prefetch_faults                      0                       # Number of TLB faults due to prefetch
system.cpu.itb.read_accesses                        0                       # DTB read accesses
system.cpu.itb.read_hits                            0                       # DTB read hits
system.cpu.itb.read_misses                          0                       # DTB read misses
system.cpu.itb.stage2_mmu.stage2_tlb.accesses            0                       # DTB accesses
system.cpu.itb.stage2_mmu.stage2_tlb.align_faults            0                       # Number of TLB faults due to alignment restrictions
system.cpu.itb.stage2_mmu.stage2_tlb.domain_faults            0                       # Number of TLB faults due to domain restrictions
system.cpu.itb.stage2_mmu.stage2_tlb.flush_entries            0                       # Number of entries that have been flushed from TLB
system.cpu.itb.stage2_mmu.stage2_tlb.flush_tlb            0                       # Number of times complete TLB was flushed
system.cpu.itb.stage2_mmu.stage2_tlb.flush_tlb_asid            0                       # Number of times TLB was flushed by ASID
system.cpu.itb.stage2_mmu.stage2_tlb.flush_tlb_mva            0                       # Number of times TLB was flushed by MVA
system.cpu.itb.stage2_mmu.stage2_tlb.flush_tlb_mva_asid            0                       # Number of times TLB was flushed by MVA & ASID
system.cpu.itb.stage2_mmu.stage2_tlb.hits            0                       # DTB hits
system.cpu.itb.stage2_mmu.stage2_tlb.inst_accesses            0                       # ITB inst accesses
system.cpu.itb.stage2_mmu.stage2_tlb.inst_hits            0                       # ITB inst hits
system.cpu.itb.stage2_mmu.stage2_tlb.inst_misses            0                       # ITB inst misses
system.cpu.itb.stage2_mmu.stage2_tlb.misses            0                       # DTB misses
system.cpu.itb.stage2_mmu.stage2_tlb.perms_faults            0                       # Number of TLB faults due to permissions restrictions
system.cpu.itb.stage2_mmu.stage2_tlb.prefetch_faults            0                       # Number of TLB faults due to prefetch
system.cpu.itb.stage2_mmu.stage2_tlb.read_accesses            0                       # DTB read accesses
system.cpu.itb.stage2_mmu.stage2_tlb.read_hits            0                       # DTB read hits
system.cpu.itb.stage2_mmu.stage2_tlb.read_misses            0                       # DTB read misses
system.cpu.itb.stage2_mmu.stage2_tlb.walker.walkRequestOrigin_Requested::Data            0                       # Table walker requests started/completed, data/inst
system.cpu.itb.stage2_mmu.stage2_tlb.walker.walkRequestOrigin_Requested::Inst            0                       # Table walker requests started/completed, data/inst
system.cpu.itb.stage2_mmu.stage2_tlb.walker.walkRequestOrigin_Requested::total            0                       # Table walker requests started/completed, data/inst
system.cpu.itb.stage2_mmu.stage2_tlb.walker.walkRequestOrigin_Completed::Data            0                       # Table walker requests started/completed, data/inst
system.cpu.itb.stage2_mmu.stage2_tlb.walker.walkRequestOrigin_Completed::Inst            0                       # Table walker requests started/completed, data/inst
system.cpu.itb.stage2_mmu.stage2_tlb.walker.walkRequestOrigin_Completed::total            0                       # Table walker requests started/completed, data/inst
system.cpu.itb.stage2_mmu.stage2_tlb.walker.walkRequestOrigin::total            0                       # Table walker requests started/completed, data/inst
system.cpu.itb.stage2_mmu.stage2_tlb.walker.walks            0                       # Table walker walks requested
system.cpu.itb.stage2_mmu.stage2_tlb.write_accesses            0                       # DTB write accesses
system.cpu.itb.stage2_mmu.stage2_tlb.write_hits            0                       # DTB write hits
system.cpu.itb.stage2_mmu.stage2_tlb.write_misses            0                       # DTB write misses
system.cpu.itb.walker.walkRequestOrigin_Requested::Data            0                       # Table walker requests started/completed, data/inst
system.cpu.itb.walker.walkRequestOrigin_Requested::Inst            0                       # Table walker requests started/completed, data/inst
system.cpu.itb.walker.walkRequestOrigin_Requested::total            0                       # Table walker requests started/completed, data/inst
system.cpu.itb.walker.walkRequestOrigin_Completed::Data            0                       # Table walker requests started/completed, data/inst
system.cpu.itb.walker.walkRequestOrigin_Completed::Inst            0                       # Table walker requests started/completed, data/inst
system.cpu.itb.walker.walkRequestOrigin_Completed::total            0                       # Table walker requests started/completed, data/inst
system.cpu.itb.walker.walkRequestOrigin::total            0                       # Table walker requests started/completed, data/inst
system.cpu.itb.walker.walks                         0                       # Table walker walks requested
system.cpu.itb.write_accesses                       0                       # DTB write accesses
system.cpu.itb.write_hits                           0                       # DTB write hits
system.cpu.itb.write_misses                         0                       # DTB write misses
system.cpu.numCycles                        185224650                       # number of cpu cycles simulated
system.cpu.numFetchSuspends                         0                       # Number of times Execute suspended instruction fetching
system.cpu.numWorkItemsCompleted                    0                       # number of work items this cpu completed
system.cpu.numWorkItemsStarted                      0                       # number of work items this cpu started
system.cpu.op_class_0::No_OpClass                   0      0.00%      0.00% # Class of committed instruction
system.cpu.op_class_0::IntAlu                46531784     46.44%     46.44% # Class of committed instruction
system.cpu.op_class_0::IntMult                  20720      0.02%     46.46% # Class of committed instruction
system.cpu.op_class_0::IntDiv                       0      0.00%     46.46% # Class of committed instruction
system.cpu.op_class_0::FloatAdd                     0      0.00%     46.46% # Class of committed instruction
system.cpu.op_class_0::FloatCmp                     0      0.00%     46.46% # Class of committed instruction
system.cpu.op_class_0::FloatCvt                     0      0.00%     46.46% # Class of committed instruction
system.cpu.op_class_0::FloatMult                    0      0.00%     46.46% # Class of committed instruction
system.cpu.op_class_0::FloatMultAcc                 0      0.00%     46.46% # Class of committed instruction
system.cpu.op_class_0::FloatDiv                     0      0.00%     46.46% # Class of committed instruction
system.cpu.op_class_0::FloatMisc                    0      0.00%     46.46% # Class of committed instruction
system.cpu.op_class_0::FloatSqrt                    0      0.00%     46.46% # Class of committed instruction
system.cpu.op_class_0::SimdAdd                      0      0.00%     46.46% # Class of committed instruction
system.cpu.op_class_0::SimdAddAcc                   0      0.00%     46.46% # Class of committed instruction
system.cpu.op_class_0::SimdAlu                      0      0.00%     46.46% # Class of committed instruction
system.cpu.op_class_0::SimdCmp                      0      0.00%     46.46% # Class of committed instruction
system.cpu.op_class_0::SimdCvt                      0      0.00%     46.46% # Class of committed instruction
system.cpu.op_class_0::SimdMisc                     0      0.00%     46.46% # Class of committed instruction
system.cpu.op_class_0::SimdMult                     0      0.00%     46.46% # Class of committed instruction
system.cpu.op_class_0::SimdMultAcc                  0      0.00%     46.46% # Class of committed instruction
system.cpu.op_class_0::SimdShift                    0      0.00%     46.46% # Class of committed instruction
system.cpu.op_class_0::SimdShiftAcc                 0      0.00%     46.46% # Class of committed instruction
system.cpu.op_class_0::SimdDiv                      0      0.00%     46.46% # Class of committed instruction
system.cpu.op_class_0::SimdSqrt                     0      0.00%     46.46% # Class of committed instruction
system.cpu.op_class_0::SimdFloatAdd                 0      0.00%     46.46% # Class of committed instruction
system.cpu.op_class_0::SimdFloatAlu                 0      0.00%     46.46% # Class of committed instruction
system.cpu.op_class_0::SimdFloatCmp                 0      0.00%     46.46% # Class of committed instruction
system.cpu.op_class_0::SimdFloatCvt                 0      0.00%     46.46% # Class of committed instruction
system.cpu.op_class_0::SimdFloatDiv                 0      0.00%     46.46% # Class of committed instruction
system.cpu.op_class_0::SimdFloatMisc               18      0.00%     46.46% # Class of committed instruction
system.cpu.op_class_0::SimdFloatMult                0      0.00%     46.46% # Class of committed instruction
system.cpu.op_class_0::SimdFloatMultAcc             0      0.00%     46.46% # Class of committed instruction
system.cpu.op_class_0::SimdFloatSqrt                0      0.00%     46.46% # Class of committed instruction
system.cpu.op_class_0::SimdReduceAdd                0      0.00%     46.46% # Class of committed instruction
system.cpu.op_class_0::SimdReduceAlu                0      0.00%     46.46% # Class of committed instruction
system.cpu.op_class_0::SimdReduceCmp                0      0.00%     46.46% # Class of committed instruction
system.cpu.op_class_0::SimdFloatReduceAdd            0      0.00%     46.46% # Class of committed instruction
system.cpu.op_class_0::SimdFloatReduceCmp            0      0.00%     46.46% # Class of committed instruction
system.cpu.op_class_0::SimdAes                      0      0.00%     46.46% # Class of committed instruction
system.cpu.op_class_0::SimdAesMix                   0      0.00%     46.46% # Class of committed instruction
system.cpu.op_class_0::SimdSha1Hash                 0      0.00%     46.46% # Class of committed instruction
system.cpu.op_class_0::SimdSha1Hash2                0      0.00%     46.46% # Class of committed instruction
system.cpu.op_class_0::SimdSha256Hash               0      0.00%     46.46% # Class of committed instruction
system.cpu.op_class_0::SimdSha256Hash2              0      0.00%     46.46% # Class of committed instruction
system.cpu.op_class_0::SimdShaSigma2                0      0.00%     46.46% # Class of committed instruction
system.cpu.op_class_0::SimdShaSigma3                0      0.00%     46.46% # Class of committed instruction
system.cpu.op_class_0::SimdPredAlu                  0      0.00%     46.46% # Class of committed instruction
system.cpu.op_class_0::MemRead               42693535     42.61%     89.07% # Class of committed instruction
system.cpu.op_class_0::MemWrite              10950799     10.93%    100.00% # Class of committed instruction
system.cpu.op_class_0::FloatMemRead                 0      0.00%    100.00% # Class of committed instruction
system.cpu.op_class_0::FloatMemWrite                0      0.00%    100.00% # Class of committed instruction
system.cpu.op_class_0::IprAccess                    0      0.00%    100.00% # Class of committed instruction
system.cpu.op_class_0::InstPrefetch                 0      0.00%    100.00% # Class of committed instruction
system.cpu.op_class_0::total                100196856                       # Class of committed instruction
system.cpu.tickCycles                       133310680                       # Number of cycles that the object actually ticked
system.cpu.workload.numSyscalls                   119                       # Number of system calls
system.membus.snoop_filter.hit_multi_requests            0                       # Number of requests hitting in the snoop filter with multiple (>1) holders of the requested data.
system.membus.snoop_filter.hit_multi_snoops            0                       # Number of snoops hitting in the snoop filter with multiple (>1) holders of the requested data.
system.membus.snoop_filter.hit_single_requests       288436                       # Number of requests hitting in the snoop filter with a single holder of the requested data.
system.membus.snoop_filter.hit_single_snoops            0                       # Number of snoops hitting in the snoop filter with a single holder of the requested data.
system.membus.snoop_filter.tot_requests        643011                       # Total number of requests made to the snoop filter.
system.membus.snoop_filter.tot_snoops               0                       # Total number of snoops made to the snoop filter.
system.tol2bus.snoop_filter.hit_multi_requests          110                       # Number of requests hitting in the snoop filter with multiple (>1) holders of the requested data.
system.tol2bus.snoop_filter.hit_multi_snoops            0                       # Number of snoops hitting in the snoop filter with multiple (>1) holders of the requested data.
system.tol2bus.snoop_filter.hit_single_requests       826927                       # Number of requests hitting in the snoop filter with a single holder of the requested data.
system.tol2bus.snoop_filter.hit_single_snoops          765                       # Number of snoops hitting in the snoop filter with a single holder of the requested data.
system.tol2bus.snoop_filter.tot_requests      1656722                       # Total number of requests made to the snoop filter.
system.tol2bus.snoop_filter.tot_snoops            765                       # Total number of snoops made to the snoop filter.
system.membus.pwrStateResidencyTicks::UNDEFINED  92612325000                       # Cumulative time (in ticks) in various power states
system.membus.trans_dist::ReadResp             118749                       # Transaction distribution
system.membus.trans_dist::WritebackDirty       185451                       # Transaction distribution
system.membus.trans_dist::CleanEvict           102980                       # Transaction distribution
system.membus.trans_dist::ReadExReq            235831                       # Transaction distribution
system.membus.trans_dist::ReadExResp           235830                       # Transaction distribution
system.membus.trans_dist::ReadSharedReq        118749                       # Transaction distribution
system.membus.pkt_count_system.l2.mem_side::system.mem_ctrls.port       997590                       # Packet count per connected master and slave (bytes)
system.membus.pkt_count::total                 997590                       # Packet count per connected master and slave (bytes)
system.membus.pkt_size_system.l2.mem_side::system.mem_ctrls.port     17280960                       # Cumulative packet size per connected master and slave (bytes)
system.membus.pkt_size::total                17280960                       # Cumulative packet size per connected master and slave (bytes)
system.membus.snoops                                0                       # Total snoops (count)
system.membus.snoopTraffic                          0                       # Total snoop traffic (bytes)
system.membus.snoop_fanout::samples            354580                       # Request fanout histogram
system.membus.snoop_fanout::mean                    0                       # Request fanout histogram
system.membus.snoop_fanout::stdev                   0                       # Request fanout histogram
system.membus.snoop_fanout::underflows              0      0.00%      0.00% # Request fanout histogram
system.membus.snoop_fanout::0                  354580    100.00%    100.00% # Request fanout histogram
system.membus.snoop_fanout::1                       0      0.00%    100.00% # Request fanout histogram
system.membus.snoop_fanout::overflows               0      0.00%    100.00% # Request fanout histogram
system.membus.snoop_fanout::min_value               0                       # Request fanout histogram
system.membus.snoop_fanout::max_value               0                       # Request fanout histogram
system.membus.snoop_fanout::total              354580                       # Request fanout histogram
system.membus.respLayer1.occupancy         1194651750                       # Layer occupancy (ticks)
system.membus.respLayer1.utilization              1.3                       # Layer utilization (%)
system.membus.reqLayer0.occupancy          1101320000                       # Layer occupancy (ticks)
system.membus.reqLayer0.utilization               1.2                       # Layer utilization (%)
system.tol2bus.pwrStateResidencyTicks::UNDEFINED  92612325000                       # Cumulative time (in ticks) in various power states
system.tol2bus.trans_dist::ReadResp            484632                       # Transaction distribution
system.tol2bus.trans_dist::WritebackDirty       885224                       # Transaction distribution
system.tol2bus.trans_dist::WritebackClean          344                       # Transaction distribution
system.tol2bus.trans_dist::CleanEvict          230553                       # Transaction distribution
system.tol2bus.trans_dist::ReadExReq           345150                       # Transaction distribution
system.tol2bus.trans_dist::ReadExResp          345149                       # Transaction distribution
system.tol2bus.trans_dist::ReadCleanReq          1167                       # Transaction distribution
system.tol2bus.trans_dist::ReadSharedReq       483465                       # Transaction distribution
system.tol2bus.trans_dist::InvalidateReq           15                       # Transaction distribution
system.tol2bus.trans_dist::InvalidateResp           15                       # Transaction distribution
system.tol2bus.pkt_count_system.cpu.icache.mem_side::system.l2.cpu_side         2678                       # Packet count per connected master and slave (bytes)
system.tol2bus.pkt_count_system.cpu.dcache.mem_side::system.l2.cpu_side      2483840                       # Packet count per connected master and slave (bytes)
system.tol2bus.pkt_count::total               2486518                       # Packet count per connected master and slave (bytes)
system.tol2bus.pkt_size_system.cpu.icache.mem_side::system.l2.cpu_side        48352                       # Cumulative packet size per connected master and slave (bytes)
system.tol2bus.pkt_size_system.cpu.dcache.mem_side::system.l2.cpu_side     48908384                       # Cumulative packet size per connected master and slave (bytes)
system.tol2bus.pkt_size::total               48956736                       # Cumulative packet size per connected master and slave (bytes)
system.tol2bus.snoops                          289196                       # Total snoops (count)
system.tol2bus.snoopTraffic                   5934432                       # Total snoop traffic (bytes)
system.tol2bus.snoop_fanout::samples          1118993                       # Request fanout histogram
system.tol2bus.snoop_fanout::mean            0.000784                       # Request fanout histogram
system.tol2bus.snoop_fanout::stdev           0.027984                       # Request fanout histogram
system.tol2bus.snoop_fanout::underflows             0      0.00%      0.00% # Request fanout histogram
system.tol2bus.snoop_fanout::0                1118116     99.92%     99.92% # Request fanout histogram
system.tol2bus.snoop_fanout::1                    877      0.08%    100.00% # Request fanout histogram
system.tol2bus.snoop_fanout::2                      0      0.00%    100.00% # Request fanout histogram
system.tol2bus.snoop_fanout::overflows              0      0.00%    100.00% # Request fanout histogram
system.tol2bus.snoop_fanout::min_value              0                       # Request fanout histogram
system.tol2bus.snoop_fanout::max_value              1                       # Request fanout histogram
system.tol2bus.snoop_fanout::total            1118993                       # Request fanout histogram
system.tol2bus.reqLayer0.occupancy         1178419500                       # Layer occupancy (ticks)
system.tol2bus.reqLayer0.utilization              1.3                       # Layer utilization (%)
system.tol2bus.respLayer1.occupancy         828622997                       # Layer occupancy (ticks)
system.tol2bus.respLayer1.utilization             0.9                       # Layer utilization (%)
system.tol2bus.respLayer0.occupancy           1167000                       # Layer occupancy (ticks)
system.tol2bus.respLayer0.utilization             0.0                       # Layer utilization (%)
system.voltage_domain.voltage                       1                       # Voltage in Volts
system.clk_domain.clock                          1000                       # Clock period in ticks
system.l2.pwrStateResidencyTicks::UNDEFINED  92612325000                       # Cumulative time (in ticks) in various power states
system.l2.demand_hits::.cpu.inst                   71                       # number of demand (read+write) hits
system.l2.demand_hits::.cpu.data               475128                       # number of demand (read+write) hits
system.l2.demand_hits::total                   475199                       # number of demand (read+write) hits
system.l2.overall_hits::.cpu.inst                  71                       # number of overall hits
system.l2.overall_hits::.cpu.data              475128                       # number of overall hits
system.l2.overall_hits::total                  475199                       # number of overall hits
system.l2.demand_misses::.cpu.inst               1096                       # number of demand (read+write) misses
system.l2.demand_misses::.cpu.data             353487                       # number of demand (read+write) misses
system.l2.demand_misses::total                 354583                       # number of demand (read+write) misses
system.l2.overall_misses::.cpu.inst              1096                       # number of overall misses
system.l2.overall_misses::.cpu.data            353487                       # number of overall misses
system.l2.overall_misses::total                354583                       # number of overall misses
system.l2.demand_miss_latency::.cpu.inst     86312500                       # number of demand (read+write) miss cycles
system.l2.demand_miss_latency::.cpu.data  29009402000                       # number of demand (read+write) miss cycles
system.l2.demand_miss_latency::total      29095714500                       # number of demand (read+write) miss cycles
system.l2.overall_miss_latency::.cpu.inst     86312500                       # number of overall miss cycles
system.l2.overall_miss_latency::.cpu.data  29009402000                       # number of overall miss cycles
system.l2.overall_miss_latency::total     29095714500                       # number of overall miss cycles
system.l2.demand_accesses::.cpu.inst             1167                       # number of demand (read+write) accesses
system.l2.demand_accesses::.cpu.data           828615                       # number of demand (read+write) accesses
system.l2.demand_accesses::total               829782                       # number of demand (read+write) accesses
system.l2.overall_accesses::.cpu.inst            1167                       # number of overall (read+write) accesses
system.l2.overall_accesses::.cpu.data          828615                       # number of overall (read+write) accesses
system.l2.overall_accesses::total              829782                       # number of overall (read+write) accesses
system.l2.demand_miss_rate::.cpu.inst        0.939160                       # miss rate for demand accesses
system.l2.demand_miss_rate::.cpu.data        0.426600                       # miss rate for demand accesses
system.l2.demand_miss_rate::total            0.427321                       # miss rate for demand accesses
system.l2.overall_miss_rate::.cpu.inst       0.939160                       # miss rate for overall accesses
system.l2.overall_miss_rate::.cpu.data       0.426600                       # miss rate for overall accesses
system.l2.overall_miss_rate::total           0.427321                       # miss rate for overall accesses
system.l2.demand_avg_miss_latency::.cpu.inst 78752.281022                       # average overall miss latency
system.l2.demand_avg_miss_latency::.cpu.data 82066.389995                       # average overall miss latency
system.l2.demand_avg_miss_latency::total 82056.146234                       # average overall miss latency
system.l2.overall_avg_miss_latency::.cpu.inst 78752.281022                       # average overall miss latency
system.l2.overall_avg_miss_latency::.cpu.data 82066.389995                       # average overall miss latency
system.l2.overall_avg_miss_latency::total 82056.146234                       # average overall miss latency
system.l2.blocked_cycles::no_mshrs                  0                       # number of cycles access was blocked
system.l2.blocked_cycles::no_targets                0                       # number of cycles access was blocked
system.l2.blocked::no_mshrs                         0                       # number of cycles access was blocked
system.l2.blocked::no_targets                       0                       # number of cycles access was blocked
system.l2.avg_blocked_cycles::no_mshrs            nan                       # average number of cycles each access was blocked
system.l2.avg_blocked_cycles::no_targets          nan                       # average number of cycles each access was blocked
system.l2.writebacks::.writebacks              185451                       # number of writebacks
system.l2.writebacks::total                    185451                       # number of writebacks
system.l2.demand_mshr_hits::.cpu.data               3                       # number of demand (read+write) MSHR hits
system.l2.demand_mshr_hits::total                   3                       # number of demand (read+write) MSHR hits
system.l2.overall_mshr_hits::.cpu.data              3                       # number of overall MSHR hits
system.l2.overall_mshr_hits::total                  3                       # number of overall MSHR hits
system.l2.demand_mshr_misses::.cpu.inst          1096                       # number of demand (read+write) MSHR misses
system.l2.demand_mshr_misses::.cpu.data        353484                       # number of demand (read+write) MSHR misses
system.l2.demand_mshr_misses::total            354580                       # number of demand (read+write) MSHR misses
system.l2.overall_mshr_misses::.cpu.inst         1096                       # number of overall MSHR misses
system.l2.overall_mshr_misses::.cpu.data       353484                       # number of overall MSHR misses
system.l2.overall_mshr_misses::total           354580                       # number of overall MSHR misses
system.l2.demand_mshr_miss_latency::.cpu.inst     75352500                       # number of demand (read+write) MSHR miss cycles
system.l2.demand_mshr_miss_latency::.cpu.data  25474375000                       # number of demand (read+write) MSHR miss cycles
system.l2.demand_mshr_miss_latency::total  25549727500                       # number of demand (read+write) MSHR miss cycles
system.l2.overall_mshr_miss_latency::.cpu.inst     75352500                       # number of overall MSHR miss cycles
system.l2.overall_mshr_miss_latency::.cpu.data  25474375000                       # number of overall MSHR miss cycles
system.l2.overall_mshr_miss_latency::total  25549727500                       # number of overall MSHR miss cycles
system.l2.demand_mshr_miss_rate::.cpu.inst     0.939160                       # mshr miss rate for demand accesses
system.l2.demand_mshr_miss_rate::.cpu.data     0.426596                       # mshr miss rate for demand accesses
system.l2.demand_mshr_miss_rate::total       0.427317                       # mshr miss rate for demand accesses
system.l2.overall_mshr_miss_rate::.cpu.inst     0.939160                       # mshr miss rate for overall accesses
system.l2.overall_mshr_miss_rate::.cpu.data     0.426596                       # mshr miss rate for overall accesses
system.l2.overall_mshr_miss_rate::total      0.427317                       # mshr miss rate for overall accesses
system.l2.demand_avg_mshr_miss_latency::.cpu.inst 68752.281022                       # average overall mshr miss latency
system.l2.demand_avg_mshr_miss_latency::.cpu.data 72066.557468                       # average overall mshr miss latency
system.l2.demand_avg_mshr_miss_latency::total 72056.313103                       # average overall mshr miss latency
system.l2.overall_avg_mshr_miss_latency::.cpu.inst 68752.281022                       # average overall mshr miss latency
system.l2.overall_avg_mshr_miss_latency::.cpu.data 72066.557468                       # average overall mshr miss latency
system.l2.overall_avg_mshr_miss_latency::total 72056.313103                       # average overall mshr miss latency
system.l2.replacements                         289196                       # number of replacements
system.l2.WritebackDirty_hits::.writebacks       699773                       # number of WritebackDirty hits
system.l2.WritebackDirty_hits::total           699773                       # number of WritebackDirty hits
system.l2.WritebackDirty_accesses::.writebacks       699773                       # number of WritebackDirty accesses(hits+misses)
system.l2.WritebackDirty_accesses::total       699773                       # number of WritebackDirty accesses(hits+misses)
system.l2.WritebackClean_hits::.writebacks          337                       # number of WritebackClean hits
system.l2.WritebackClean_hits::total              337                       # number of WritebackClean hits
system.l2.WritebackClean_accesses::.writebacks          337                       # number of WritebackClean accesses(hits+misses)
system.l2.WritebackClean_accesses::total          337                       # number of WritebackClean accesses(hits+misses)
system.l2.ReadExReq_hits::.cpu.data            109319                       # number of ReadExReq hits
system.l2.ReadExReq_hits::total                109319                       # number of ReadExReq hits
system.l2.ReadExReq_misses::.cpu.data          235831                       # number of ReadExReq misses
system.l2.ReadExReq_misses::total              235831                       # number of ReadExReq misses
system.l2.ReadExReq_miss_latency::.cpu.data  19818692000                       # number of ReadExReq miss cycles
system.l2.ReadExReq_miss_latency::total   19818692000                       # number of ReadExReq miss cycles
system.l2.ReadExReq_accesses::.cpu.data        345150                       # number of ReadExReq accesses(hits+misses)
system.l2.ReadExReq_accesses::total            345150                       # number of ReadExReq accesses(hits+misses)
system.l2.ReadExReq_miss_rate::.cpu.data     0.683271                       # miss rate for ReadExReq accesses
system.l2.ReadExReq_miss_rate::total         0.683271                       # miss rate for ReadExReq accesses
system.l2.ReadExReq_avg_miss_latency::.cpu.data 84037.688005                       # average ReadExReq miss latency
system.l2.ReadExReq_avg_miss_latency::total 84037.688005                       # average ReadExReq miss latency
system.l2.ReadExReq_mshr_misses::.cpu.data       235831                       # number of ReadExReq MSHR misses
system.l2.ReadExReq_mshr_misses::total         235831                       # number of ReadExReq MSHR misses
system.l2.ReadExReq_mshr_miss_latency::.cpu.data  17460392000                       # number of ReadExReq MSHR miss cycles
system.l2.ReadExReq_mshr_miss_latency::total  17460392000                       # number of ReadExReq MSHR miss cycles
system.l2.ReadExReq_mshr_miss_rate::.cpu.data     0.683271                       # mshr miss rate for ReadExReq accesses
system.l2.ReadExReq_mshr_miss_rate::total     0.683271                       # mshr miss rate for ReadExReq accesses
system.l2.ReadExReq_avg_mshr_miss_latency::.cpu.data 74037.730409                       # average ReadExReq mshr miss latency
system.l2.ReadExReq_avg_mshr_miss_latency::total 74037.730409                       # average ReadExReq mshr miss latency
system.l2.ReadCleanReq_hits::.cpu.inst             71                       # number of ReadCleanReq hits
system.l2.ReadCleanReq_hits::total                 71                       # number of ReadCleanReq hits
system.l2.ReadCleanReq_misses::.cpu.inst         1096                       # number of ReadCleanReq misses
system.l2.ReadCleanReq_misses::total             1096                       # number of ReadCleanReq misses
system.l2.ReadCleanReq_miss_latency::.cpu.inst     86312500                       # number of ReadCleanReq miss cycles
system.l2.ReadCleanReq_miss_latency::total     86312500                       # number of ReadCleanReq miss cycles
system.l2.ReadCleanReq_accesses::.cpu.inst         1167                       # number of ReadCleanReq accesses(hits+misses)
system.l2.ReadCleanReq_accesses::total           1167                       # number of ReadCleanReq accesses(hits+misses)
system.l2.ReadCleanReq_miss_rate::.cpu.inst     0.939160                       # miss rate for ReadCleanReq accesses
system.l2.ReadCleanReq_miss_rate::total      0.939160                       # miss rate for ReadCleanReq accesses
system.l2.ReadCleanReq_avg_miss_latency::.cpu.inst 78752.281022                       # average ReadCleanReq miss latency
system.l2.ReadCleanReq_avg_miss_latency::total 78752.281022                       # average ReadCleanReq miss latency
system.l2.ReadCleanReq_mshr_misses::.cpu.inst         1096                       # number of ReadCleanReq MSHR misses
system.l2.ReadCleanReq_mshr_misses::total         1096                       # number of ReadCleanReq MSHR misses
system.l2.ReadCleanReq_mshr_miss_latency::.cpu.inst     75352500                       # number of ReadCleanReq MSHR miss cycles
system.l2.ReadCleanReq_mshr_miss_latency::total     75352500                       # number of ReadCleanReq MSHR miss cycles
system.l2.ReadCleanReq_mshr_miss_rate::.cpu.inst     0.939160                       # mshr miss rate for ReadCleanReq accesses
system.l2.ReadCleanReq_mshr_miss_rate::total     0.939160                       # mshr miss rate for ReadCleanReq accesses
system.l2.ReadCleanReq_avg_mshr_miss_latency::.cpu.inst 68752.281022                       # average ReadCleanReq mshr miss latency
system.l2.ReadCleanReq_avg_mshr_miss_latency::total 68752.281022                       # average ReadCleanReq mshr miss latency
system.l2.ReadSharedReq_hits::.cpu.data        365809                       # number of ReadSharedReq hits
system.l2.ReadSharedReq_hits::total            365809                       # number of ReadSharedReq hits
system.l2.ReadSharedReq_misses::.cpu.data       117656                       # number of ReadSharedReq misses
system.l2.ReadSharedReq_misses::total          117656                       # number of ReadSharedReq misses
system.l2.ReadSharedReq_miss_latency::.cpu.data   9190710000                       # number of ReadSharedReq miss cycles
system.l2.ReadSharedReq_miss_latency::total   9190710000                       # number of ReadSharedReq miss cycles
system.l2.ReadSharedReq_accesses::.cpu.data       483465                       # number of ReadSharedReq accesses(hits+misses)
system.l2.ReadSharedReq_accesses::total        483465                       # number of ReadSharedReq accesses(hits+misses)
system.l2.ReadSharedReq_miss_rate::.cpu.data     0.243360                       # miss rate for ReadSharedReq accesses
system.l2.ReadSharedReq_miss_rate::total     0.243360                       # miss rate for ReadSharedReq accesses
system.l2.ReadSharedReq_avg_miss_latency::.cpu.data 78115.098253                       # average ReadSharedReq miss latency
system.l2.ReadSharedReq_avg_miss_latency::total 78115.098253                       # average ReadSharedReq miss latency
system.l2.ReadSharedReq_mshr_hits::.cpu.data            3                       # number of ReadSharedReq MSHR hits
system.l2.ReadSharedReq_mshr_hits::total            3                       # number of ReadSharedReq MSHR hits
system.l2.ReadSharedReq_mshr_misses::.cpu.data       117653                       # number of ReadSharedReq MSHR misses
system.l2.ReadSharedReq_mshr_misses::total       117653                       # number of ReadSharedReq MSHR misses
system.l2.ReadSharedReq_mshr_miss_latency::.cpu.data   8013983000                       # number of ReadSharedReq MSHR miss cycles
system.l2.ReadSharedReq_mshr_miss_latency::total   8013983000                       # number of ReadSharedReq MSHR miss cycles
system.l2.ReadSharedReq_mshr_miss_rate::.cpu.data     0.243354                       # mshr miss rate for ReadSharedReq accesses
system.l2.ReadSharedReq_mshr_miss_rate::total     0.243354                       # mshr miss rate for ReadSharedReq accesses
system.l2.ReadSharedReq_avg_mshr_miss_latency::.cpu.data 68115.415672                       # average ReadSharedReq mshr miss latency
system.l2.ReadSharedReq_avg_mshr_miss_latency::total 68115.415672                       # average ReadSharedReq mshr miss latency
system.l2.InvalidateReq_hits::.cpu.data            15                       # number of InvalidateReq hits
system.l2.InvalidateReq_hits::total                15                       # number of InvalidateReq hits
system.l2.InvalidateReq_accesses::.cpu.data           15                       # number of InvalidateReq accesses(hits+misses)
system.l2.InvalidateReq_accesses::total            15                       # number of InvalidateReq accesses(hits+misses)
system.l2.tags.pwrStateResidencyTicks::UNDEFINED  92612325000                       # Cumulative time (in ticks) in various power states
system.l2.tags.tagsinuse                 63094.069157                       # Cycle average of tags in use
system.l2.tags.total_refs                     1656608                       # Total number of references to valid blocks.
system.l2.tags.sampled_refs                    354747                       # Sample count of references to valid blocks.
system.l2.tags.avg_refs                      4.669829                       # Average number of references to valid blocks.
system.l2.tags.warmup_cycle                     77000                       # Cycle when the warmup percentage was hit.
system.l2.tags.occ_blocks::.writebacks      50.872840                       # Average occupied blocks per requestor
system.l2.tags.occ_blocks::.cpu.inst       150.705194                       # Average occupied blocks per requestor
system.l2.tags.occ_blocks::.cpu.data     62892.491123                       # Average occupied blocks per requestor
system.l2.tags.occ_percent::.writebacks      0.000776                       # Average percentage of cache occupancy
system.l2.tags.occ_percent::.cpu.inst        0.002300                       # Average percentage of cache occupancy
system.l2.tags.occ_percent::.cpu.data        0.959663                       # Average percentage of cache occupancy
system.l2.tags.occ_percent::total            0.962739                       # Average percentage of cache occupancy
system.l2.tags.occ_task_id_blocks::1024         65536                       # Occupied blocks per task id
system.l2.tags.age_task_id_blocks_1024::0          125                       # Occupied blocks per task id
system.l2.tags.age_task_id_blocks_1024::1           79                       # Occupied blocks per task id
system.l2.tags.age_task_id_blocks_1024::2         2012                       # Occupied blocks per task id
system.l2.tags.age_task_id_blocks_1024::3        25546                       # Occupied blocks per task id
system.l2.tags.age_task_id_blocks_1024::4        37774                       # Occupied blocks per task id
system.l2.tags.occ_task_id_percent::1024            1                       # Percentage of cache occupancy per task id
system.l2.tags.tag_accesses                  13607643                       # Number of tag accesses
system.l2.tags.data_accesses                 13607643                       # Number of data accesses
system.cpu_voltage_domain.voltage                   1                       # Voltage in Volts
system.mem_ctrls.pwrStateResidencyTicks::UNDEFINED  92612325000                       # Cumulative time (in ticks) in various power states
system.mem_ctrls.bytes_read::.cpu.inst          35072                       # Number of bytes read from this memory
system.mem_ctrls.bytes_read::.cpu.data       11311488                       # Number of bytes read from this memory
system.mem_ctrls.bytes_read::total           11346560                       # Number of bytes read from this memory
system.mem_ctrls.bytes_inst_read::.cpu.inst        35072                       # Number of instructions bytes read from this memory
system.mem_ctrls.bytes_inst_read::total         35072                       # Number of instructions bytes read from this memory
system.mem_ctrls.bytes_written::.writebacks      5934432                       # Number of bytes written to this memory
system.mem_ctrls.bytes_written::total         5934432                       # Number of bytes written to this memory
system.mem_ctrls.num_reads::.cpu.inst            1096                       # Number of read requests responded to by this memory
system.mem_ctrls.num_reads::.cpu.data          353484                       # Number of read requests responded to by this memory
system.mem_ctrls.num_reads::total              354580                       # Number of read requests responded to by this memory
system.mem_ctrls.num_writes::.writebacks       185451                       # Number of write requests responded to by this memory
system.mem_ctrls.num_writes::total             185451                       # Number of write requests responded to by this memory
system.mem_ctrls.bw_read::.cpu.inst            378697                       # Total read bandwidth from this memory (bytes/s)
system.mem_ctrls.bw_read::.cpu.data         122138042                       # Total read bandwidth from this memory (bytes/s)
system.mem_ctrls.bw_read::total             122516738                       # Total read bandwidth from this memory (bytes/s)
system.mem_ctrls.bw_inst_read::.cpu.inst       378697                       # Instruction read bandwidth from this memory (bytes/s)
system.mem_ctrls.bw_inst_read::total           378697                       # Instruction read bandwidth from this memory (bytes/s)
system.mem_ctrls.bw_write::.writebacks       64078210                       # Write bandwidth from this memory (bytes/s)
system.mem_ctrls.bw_write::total             64078210                       # Write bandwidth from this memory (bytes/s)
system.mem_ctrls.bw_total::.writebacks       64078210                       # Total bandwidth to/from this memory (bytes/s)
system.mem_ctrls.bw_total::.cpu.inst           378697                       # Total bandwidth to/from this memory (bytes/s)
system.mem_ctrls.bw_total::.cpu.data        122138042                       # Total bandwidth to/from this memory (bytes/s)
system.mem_ctrls.bw_total::total            186594948                       # Total bandwidth to/from this memory (bytes/s)
system.mem_ctrls.avgPriority_.writebacks::samples    152208.00                       # Average QoS priority value for accepted requests
system.mem_ctrls.avgPriority_.cpu.inst::samples      1096.00                       # Average QoS priority value for accepted requests
system.mem_ctrls.avgPriority_.cpu.data::samples    353450.00                       # Average QoS priority value for accepted requests
system.mem_ctrls.priorityMinLatency      0.000000018750                       # per QoS priority minimum request to response latency (s)
system.mem_ctrls.priorityMaxLatency      0.003107016500                       # per QoS priority maximum request to response latency (s)
system.mem_ctrls.numReadWriteTurnArounds         9027                       # Number of turnarounds from READ to WRITE
system.mem_ctrls.numWriteReadTurnArounds         9027                       # Number of turnarounds from WRITE to READ
system.mem_ctrls.numStayReadState              907200                       # Number of times bus staying in READ state
system.mem_ctrls.numStayWriteState             143368                       # Number of times bus staying in WRITE state
system.mem_ctrls.readReqs                      354580                       # Number of read requests accepted
system.mem_ctrls.writeReqs                     185451                       # Number of write requests accepted
system.mem_ctrls.readBursts                    354580                       # Number of DRAM read bursts, including those serviced by the write queue
system.mem_ctrls.writeBursts                   185451                       # Number of DRAM write bursts, including those merged in the write queue
system.mem_ctrls.servicedByWrQ                     34                       # Number of DRAM read bursts serviced by the write queue
system.mem_ctrls.mergedWrBursts                 33243                       # Number of DRAM write bursts merged with an existing one
system.mem_ctrls.neitherReadNorWriteReqs            0                       # Number of requests that are neither read nor write
system.mem_ctrls.perBankRdBursts::0             22518                       # Per bank write bursts
system.mem_ctrls.perBankRdBursts::1             22474                       # Per bank write bursts
system.mem_ctrls.perBankRdBursts::2             22562                       # Per bank write bursts
system.mem_ctrls.perBankRdBursts::3             22145                       # Per bank write bursts
system.mem_ctrls.perBankRdBursts::4             21977                       # Per bank write bursts
system.mem_ctrls.perBankRdBursts::5             21761                       # Per bank write bursts
system.mem_ctrls.perBankRdBursts::6             21703                       # Per bank write bursts
system.mem_ctrls.perBankRdBursts::7             21983                       # Per bank write bursts
system.mem_ctrls.perBankRdBursts::8             22030                       # Per bank write bursts
system.mem_ctrls.perBankRdBursts::9             21901                       # Per bank write bursts
system.mem_ctrls.perBankRdBursts::10            21965                       # Per bank write bursts
system.mem_ctrls.perBankRdBursts::11            22077                       # Per bank write bursts
system.mem_ctrls.perBankRdBursts::12            22338                       # Per bank write bursts
system.mem_ctrls.perBankRdBursts::13            22446                       # Per bank write bursts
system.mem_ctrls.perBankRdBursts::14            22409                       # Per bank write bursts
system.mem_ctrls.perBankRdBursts::15            22257                       # Per bank write bursts
system.mem_ctrls.perBankWrBursts::0              9659                       # Per bank write bursts
system.mem_ctrls.perBankWrBursts::1              9767                       # Per bank write bursts
system.mem_ctrls.perBankWrBursts::2              9738                       # Per bank write bursts
system.mem_ctrls.perBankWrBursts::3              9589                       # Per bank write bursts
system.mem_ctrls.perBankWrBursts::4              9542                       # Per bank write bursts
system.mem_ctrls.perBankWrBursts::5              9484                       # Per bank write bursts
system.mem_ctrls.perBankWrBursts::6              9400                       # Per bank write bursts
system.mem_ctrls.perBankWrBursts::7              9283                       # Per bank write bursts
system.mem_ctrls.perBankWrBursts::8              9306                       # Per bank write bursts
system.mem_ctrls.perBankWrBursts::9              9397                       # Per bank write bursts
system.mem_ctrls.perBankWrBursts::10             9456                       # Per bank write bursts
system.mem_ctrls.perBankWrBursts::11             9413                       # Per bank write bursts
system.mem_ctrls.perBankWrBursts::12             9429                       # Per bank write bursts
system.mem_ctrls.perBankWrBursts::13             9551                       # Per bank write bursts
system.mem_ctrls.perBankWrBursts::14             9651                       # Per bank write bursts
system.mem_ctrls.perBankWrBursts::15             9524                       # Per bank write bursts
system.mem_ctrls.avgRdQLen                       1.08                       # Average read queue length when enqueuing
system.mem_ctrls.avgWrQLen                      24.83                       # Average write queue length when enqueuing
system.mem_ctrls.totQLat                   4287752250                       # Total ticks spent queuing
system.mem_ctrls.totBusLat                 1772730000                       # Total ticks spent in databus transfers
system.mem_ctrls.totMemAccLat             10935489750                       # Total ticks spent from burst creation until serviced by the DRAM
system.mem_ctrls.avgQLat                     12093.64                       # Average queueing delay per DRAM burst
system.mem_ctrls.avgBusLat                    5000.00                       # Average bus latency per DRAM burst
system.mem_ctrls.avgMemAccLat                30843.64                       # Average memory access latency per DRAM burst
system.mem_ctrls.numRdRetry                         0                       # Number of times read queue was full causing retry
system.mem_ctrls.numWrRetry                         0                       # Number of times write queue was full causing retry
system.mem_ctrls.readRowHits                   248081                       # Number of row buffer hits during reads
system.mem_ctrls.writeRowHits                   83399                       # Number of row buffer hits during writes
system.mem_ctrls.readRowHitRate                 69.97                       # Row buffer hit rate for reads
system.mem_ctrls.writeRowHitRate                54.79                       # Row buffer hit rate for writes
system.mem_ctrls.readPktSize::0                     0                       # Read request sizes (log2)
system.mem_ctrls.readPktSize::1                     0                       # Read request sizes (log2)
system.mem_ctrls.readPktSize::2                     0                       # Read request sizes (log2)
system.mem_ctrls.readPktSize::3                     0                       # Read request sizes (log2)
system.mem_ctrls.readPktSize::4                     0                       # Read request sizes (log2)
system.mem_ctrls.readPktSize::5                354580                       # Read request sizes (log2)
system.mem_ctrls.readPktSize::6                     0                       # Read request sizes (log2)
system.mem_ctrls.writePktSize::0                    0                       # Write request sizes (log2)
system.mem_ctrls.writePktSize::1                    0                       # Write request sizes (log2)
system.mem_ctrls.writePktSize::2                    0                       # Write request sizes (log2)
system.mem_ctrls.writePktSize::3                    0                       # Write request sizes (log2)
system.mem_ctrls.writePktSize::4                    0                       # Write request sizes (log2)
system.mem_ctrls.writePktSize::5               185451                       # Write request sizes (log2)
system.mem_ctrls.writePktSize::6                    0                       # Write request sizes (log2)
system.mem_ctrls.rdQLenPdf::0                  285299                       # What read queue length does an incoming req see
system.mem_ctrls.rdQLenPdf::1                   69068                       # What read queue length does an incoming req see
system.mem_ctrls.rdQLenPdf::2                     150                       # What read queue length does an incoming req see
system.mem_ctrls.rdQLenPdf::3                      28                       # What read queue length does an incoming req see
system.mem_ctrls.rdQLenPdf::4                       1                       # What read queue length does an incoming req see
system.mem_ctrls.rdQLenPdf::5                       0                       # What read queue length does an incoming req see
system.mem_ctrls.rdQLenPdf::6                       0                       # What read queue length does an incoming req see
system.mem_ctrls.rdQLenPdf::7                       0                       # What read queue length does an incoming req see
system.mem_ctrls.rdQLenPdf::8                       0                       # What read queue length does an incoming req see
system.mem_ctrls.rdQLenPdf::9                       0                       # What read queue length does an incoming req see
system.mem_ctrls.rdQLenPdf::10                      0                       # What read queue length does an incoming req see
system.mem_ctrls.rdQLenPdf::11                      0                       # What read queue length does an incoming req see
system.mem_ctrls.rdQLenPdf::12                      0                       # What read queue length does an incoming req see
system.mem_ctrls.rdQLenPdf::13                      0                       # What read queue length does an incoming req see
system.mem_ctrls.rdQLenPdf::14                      0                       # What read queue length does an incoming req see
system.mem_ctrls.rdQLenPdf::15                      0                       # What read queue length does an incoming req see
system.mem_ctrls.rdQLenPdf::16                      0                       # What read queue length does an incoming req see
system.mem_ctrls.rdQLenPdf::17                      0                       # What read queue length does an incoming req see
system.mem_ctrls.rdQLenPdf::18                      0                       # What read queue length does an incoming req see
system.mem_ctrls.rdQLenPdf::19                      0                       # What read queue length does an incoming req see
system.mem_ctrls.rdQLenPdf::20                      0                       # What read queue length does an incoming req see
system.mem_ctrls.rdQLenPdf::21                      0                       # What read queue length does an incoming req see
system.mem_ctrls.rdQLenPdf::22                      0                       # What read queue length does an incoming req see
system.mem_ctrls.rdQLenPdf::23                      0                       # What read queue length does an incoming req see
system.mem_ctrls.rdQLenPdf::24                      0                       # What read queue length does an incoming req see
system.mem_ctrls.rdQLenPdf::25                      0                       # What read queue length does an incoming req see
system.mem_ctrls.rdQLenPdf::26                      0                       # What read queue length does an incoming req see
system.mem_ctrls.rdQLenPdf::27                      0                       # What read queue length does an incoming req see
system.mem_ctrls.rdQLenPdf::28                      0                       # What read queue length does an incoming req see
system.mem_ctrls.rdQLenPdf::29                      0                       # What read queue length does an incoming req see
system.mem_ctrls.rdQLenPdf::30                      0                       # What read queue length does an incoming req see
system.mem_ctrls.rdQLenPdf::31                      0                       # What read queue length does an incoming req see
system.mem_ctrls.wrQLenPdf::0                       1                       # What write queue length does an incoming req see
system.mem_ctrls.wrQLenPdf::1                       1                       # What write queue length does an incoming req see
system.mem_ctrls.wrQLenPdf::2                       1                       # What write queue length does an incoming req see
system.mem_ctrls.wrQLenPdf::3                       1                       # What write queue length does an incoming req see
system.mem_ctrls.wrQLenPdf::4                       1                       # What write queue length does an incoming req see
system.mem_ctrls.wrQLenPdf::5                       1                       # What write queue length does an incoming req see
system.mem_ctrls.wrQLenPdf::6                       1                       # What write queue length does an incoming req see
system.mem_ctrls.wrQLenPdf::7                       1                       # What write queue length does an incoming req see
system.mem_ctrls.wrQLenPdf::8                       1                       # What write queue length does an incoming req see
system.mem_ctrls.wrQLenPdf::9                       1                       # What write queue length does an incoming req see
system.mem_ctrls.wrQLenPdf::10                      1                       # What write queue length does an incoming req see
system.mem_ctrls.wrQLenPdf::11                      1                       # What write queue length does an incoming req see
system.mem_ctrls.wrQLenPdf::12                      1                       # What write queue length does an incoming req see
system.mem_ctrls.wrQLenPdf::13                      1                       # What write queue length does an incoming req see
system.mem_ctrls.wrQLenPdf::14                      1                       # What write queue length does an incoming req see
system.mem_ctrls.wrQLenPdf::15                   3563                       # What write queue length does an incoming req see
system.mem_ctrls.wrQLenPdf::16                   3657                       # What write queue length does an incoming req see
system.mem_ctrls.wrQLenPdf::17                   7971                       # What write queue length does an incoming req see
system.mem_ctrls.wrQLenPdf::18                   9123                       # What write queue length does an incoming req see
system.mem_ctrls.wrQLenPdf::19                   9141                       # What write queue length does an incoming req see
system.mem_ctrls.wrQLenPdf::20                   9216                       # What write queue length does an incoming req see
system.mem_ctrls.wrQLenPdf::21                   9118                       # What write queue length does an incoming req see
system.mem_ctrls.wrQLenPdf::22                   9154                       # What write queue length does an incoming req see
system.mem_ctrls.wrQLenPdf::23                   9113                       # What write queue length does an incoming req see
system.mem_ctrls.wrQLenPdf::24                   9156                       # What write queue length does an incoming req see
system.mem_ctrls.wrQLenPdf::25                   9222                       # What write queue length does an incoming req see
system.mem_ctrls.wrQLenPdf::26                   9110                       # What write queue length does an incoming req see
system.mem_ctrls.wrQLenPdf::27                   9066                       # What write queue length does an incoming req see
system.mem_ctrls.wrQLenPdf::28                   9309                       # What write queue length does an incoming req see
system.mem_ctrls.wrQLenPdf::29                   9132                       # What write queue length does an incoming req see
system.mem_ctrls.wrQLenPdf::30                   9053                       # What write queue length does an incoming req see
system.mem_ctrls.wrQLenPdf::31                   9057                       # What write queue length does an incoming req see
system.mem_ctrls.wrQLenPdf::32                   9028                       # What write queue length does an incoming req see
system.mem_ctrls.wrQLenPdf::33                      4                       # What write queue length does an incoming req see
system.mem_ctrls.wrQLenPdf::34                      0                       # What write queue length does an incoming req see
system.mem_ctrls.wrQLenPdf::35                      0                       # What write queue length does an incoming req see
system.mem_ctrls.wrQLenPdf::36                      0                       # What write queue length does an incoming req see
system.mem_ctrls.wrQLenPdf::37                      0                       # What write queue length does an incoming req see
system.mem_ctrls.wrQLenPdf::38                      0                       # What write queue length does an incoming req see
system.mem_ctrls.wrQLenPdf::39                      0                       # What write queue length does an incoming req see
system.mem_ctrls.wrQLenPdf::40                      0                       # What write queue length does an incoming req see
system.mem_ctrls.wrQLenPdf::41                      0                       # What write queue length does an incoming req see
system.mem_ctrls.wrQLenPdf::42                      0                       # What write queue length does an incoming req see
system.mem_ctrls.wrQLenPdf::43                      0                       # What write queue length does an incoming req see
system.mem_ctrls.wrQLenPdf::44                      0                       # What write queue length does an incoming req see
system.mem_ctrls.wrQLenPdf::45                      0                       # What write queue length does an incoming req see
system.mem_ctrls.wrQLenPdf::46                      0                       # What write queue length does an incoming req see
system.mem_ctrls.wrQLenPdf::47                      0                       # What write queue length does an incoming req see
system.mem_ctrls.wrQLenPdf::48                      0                       # What write queue length does an incoming req see
system.mem_ctrls.wrQLenPdf::49                      0                       # What write queue length does an incoming req see
system.mem_ctrls.wrQLenPdf::50                      0                       # What write queue length does an incoming req see
system.mem_ctrls.wrQLenPdf::51                      0                       # What write queue length does an incoming req see
system.mem_ctrls.wrQLenPdf::52                      0                       # What write queue length does an incoming req see
system.mem_ctrls.wrQLenPdf::53                      0                       # What write queue length does an incoming req see
system.mem_ctrls.wrQLenPdf::54                      0                       # What write queue length does an incoming req see
system.mem_ctrls.wrQLenPdf::55                      0                       # What write queue length does an incoming req see
system.mem_ctrls.wrQLenPdf::56                      0                       # What write queue length does an incoming req see
system.mem_ctrls.wrQLenPdf::57                      0                       # What write queue length does an incoming req see
system.mem_ctrls.wrQLenPdf::58                      0                       # What write queue length does an incoming req see
system.mem_ctrls.wrQLenPdf::59                      0                       # What write queue length does an incoming req see
system.mem_ctrls.wrQLenPdf::60                      0                       # What write queue length does an incoming req see
system.mem_ctrls.wrQLenPdf::61                      0                       # What write queue length does an incoming req see
system.mem_ctrls.wrQLenPdf::62                      0                       # What write queue length does an incoming req see
system.mem_ctrls.wrQLenPdf::63                      0                       # What write queue length does an incoming req see
system.mem_ctrls.bytesPerActivate::samples       175245                       # Bytes accessed per row activation
system.mem_ctrls.bytesPerActivate::mean    185.057491                       # Bytes accessed per row activation
system.mem_ctrls.bytesPerActivate::gmean   106.003286                       # Bytes accessed per row activation
system.mem_ctrls.bytesPerActivate::stdev   266.731752                       # Bytes accessed per row activation
system.mem_ctrls.bytesPerActivate::0-127       121895     69.56%     69.56% # Bytes accessed per row activation
system.mem_ctrls.bytesPerActivate::128-255        23090     13.18%     82.73% # Bytes accessed per row activation
system.mem_ctrls.bytesPerActivate::256-383         4690      2.68%     85.41% # Bytes accessed per row activation
system.mem_ctrls.bytesPerActivate::384-511         1831      1.04%     86.45% # Bytes accessed per row activation
system.mem_ctrls.bytesPerActivate::512-639         9018      5.15%     91.60% # Bytes accessed per row activation
system.mem_ctrls.bytesPerActivate::640-767          836      0.48%     92.08% # Bytes accessed per row activation
system.mem_ctrls.bytesPerActivate::768-895          731      0.42%     92.49% # Bytes accessed per row activation
system.mem_ctrls.bytesPerActivate::896-1023         1364      0.78%     93.27% # Bytes accessed per row activation
system.mem_ctrls.bytesPerActivate::1024-1151        11790      6.73%    100.00% # Bytes accessed per row activation
system.mem_ctrls.bytesPerActivate::total       175245                       # Bytes accessed per row activation
system.mem_ctrls.rdPerTurnAround::samples         9027                       # Reads before turning the bus around for writes
system.mem_ctrls.rdPerTurnAround::mean      39.275950                       # Reads before turning the bus around for writes
system.mem_ctrls.rdPerTurnAround::gmean     27.476886                       # Reads before turning the bus around for writes
system.mem_ctrls.rdPerTurnAround::stdev     77.938071                       # Reads before turning the bus around for writes
system.mem_ctrls.rdPerTurnAround::0-127          8834     97.86%     97.86% # Reads before turning the bus around for writes
system.mem_ctrls.rdPerTurnAround::128-255           48      0.53%     98.39% # Reads before turning the bus around for writes
system.mem_ctrls.rdPerTurnAround::256-383           15      0.17%     98.56% # Reads before turning the bus around for writes
system.mem_ctrls.rdPerTurnAround::384-511            6      0.07%     98.63% # Reads before turning the bus around for writes
[...]
system.cpu.icache.tags.occ_task_id_blocks::1024          823                       # Occupied blocks per task id
system.cpu.icache.tags.age_task_id_blocks_1024::3          215                       # Occupied blocks per task id
system.cpu.icache.tags.age_task_id_blocks_1024::4          608                       # Occupied blocks per task id
system.cpu.icache.tags.occ_task_id_percent::1024     0.803711                       # Percentage of cache occupancy per task id
system.cpu.icache.tags.tag_accesses          26690545                       # Number of tag accesses
system.cpu.icache.tags.data_accesses         26690545                       # Number of data accesses
system.cpu.dtb.walker.pwrStateResidencyTicks::UNDEFINED  92612325000                       # Cumulative time (in ticks) in various power states
system.cpu.dtb.stage2_mmu.stage2_tlb.walker.pwrStateResidencyTicks::UNDEFINED  92612325000                       # Cumulative time (in ticks) in various power states
system.cpu.dcache.pwrStateResidencyTicks::UNDEFINED  92612325000                       # Cumulative time (in ticks) in various power states
system.cpu.dcache.demand_hits::.cpu.data     51157559                       # number of demand (read+write) hits
system.cpu.dcache.demand_hits::total         51157559                       # number of demand (read+write) hits
system.cpu.dcache.overall_hits::.cpu.data     51157976                       # number of overall hits
system.cpu.dcache.overall_hits::total        51157976                       # number of overall hits
system.cpu.dcache.demand_misses::.cpu.data       944774                       # number of demand (read+write) misses
system.cpu.dcache.demand_misses::total         944774                       # number of demand (read+write) misses
system.cpu.dcache.overall_misses::.cpu.data       952775                       # number of overall misses
system.cpu.dcache.overall_misses::total        952775                       # number of overall misses
system.cpu.dcache.demand_miss_latency::.cpu.data  41256315000                       # number of demand (read+write) miss cycles
system.cpu.dcache.demand_miss_latency::total  41256315000                       # number of demand (read+write) miss cycles
system.cpu.dcache.overall_miss_latency::.cpu.data  41256315000                       # number of overall miss cycles
system.cpu.dcache.overall_miss_latency::total  41256315000                       # number of overall miss cycles
system.cpu.dcache.demand_accesses::.cpu.data     52102333                       # number of demand (read+write) accesses
system.cpu.dcache.demand_accesses::total     52102333                       # number of demand (read+write) accesses
system.cpu.dcache.overall_accesses::.cpu.data     52110751                       # number of overall (read+write) accesses
system.cpu.dcache.overall_accesses::total     52110751                       # number of overall (read+write) accesses
system.cpu.dcache.demand_miss_rate::.cpu.data     0.018133                       # miss rate for demand accesses
system.cpu.dcache.demand_miss_rate::total     0.018133                       # miss rate for demand accesses
system.cpu.dcache.overall_miss_rate::.cpu.data     0.018284                       # miss rate for overall accesses
system.cpu.dcache.overall_miss_rate::total     0.018284                       # miss rate for overall accesses
system.cpu.dcache.demand_avg_miss_latency::.cpu.data 43667.919524                       # average overall miss latency
system.cpu.dcache.demand_avg_miss_latency::total 43667.919524                       # average overall miss latency
system.cpu.dcache.overall_avg_miss_latency::.cpu.data 43301.214872                       # average overall miss latency
system.cpu.dcache.overall_avg_miss_latency::total 43301.214872                       # average overall miss latency
system.cpu.dcache.blocked_cycles::no_mshrs         7027                       # number of cycles access was blocked
system.cpu.dcache.blocked_cycles::no_targets            0                       # number of cycles access was blocked
system.cpu.dcache.blocked::no_mshrs                78                       # number of cycles access was blocked
system.cpu.dcache.blocked::no_targets               0                       # number of cycles access was blocked
system.cpu.dcache.avg_blocked_cycles::no_mshrs    90.089744                       # average number of cycles each access was blocked
system.cpu.dcache.avg_blocked_cycles::no_targets          nan                       # average number of cycles each access was blocked
system.cpu.dcache.writebacks::.writebacks       699773                       # number of writebacks
system.cpu.dcache.writebacks::total            699773                       # number of writebacks
system.cpu.dcache.demand_mshr_hits::.cpu.data       124146                       # number of demand (read+write) MSHR hits
system.cpu.dcache.demand_mshr_hits::total       124146                       # number of demand (read+write) MSHR hits
system.cpu.dcache.overall_mshr_hits::.cpu.data       124146                       # number of overall MSHR hits
system.cpu.dcache.overall_mshr_hits::total       124146                       # number of overall MSHR hits
system.cpu.dcache.demand_mshr_misses::.cpu.data       820628                       # number of demand (read+write) MSHR misses
system.cpu.dcache.demand_mshr_misses::total       820628                       # number of demand (read+write) MSHR misses
system.cpu.dcache.overall_mshr_misses::.cpu.data       828629                       # number of overall MSHR misses
system.cpu.dcache.overall_mshr_misses::total       828629                       # number of overall MSHR misses
system.cpu.dcache.demand_mshr_miss_latency::.cpu.data  34606780500                       # number of demand (read+write) MSHR miss cycles
system.cpu.dcache.demand_mshr_miss_latency::total  34606780500                       # number of demand (read+write) MSHR miss cycles
system.cpu.dcache.overall_mshr_miss_latency::.cpu.data  35243249999                       # number of overall MSHR miss cycles
system.cpu.dcache.overall_mshr_miss_latency::total  35243249999                       # number of overall MSHR miss cycles
system.cpu.dcache.demand_mshr_miss_rate::.cpu.data     0.015750                       # mshr miss rate for demand accesses
system.cpu.dcache.demand_mshr_miss_rate::total     0.015750                       # mshr miss rate for demand accesses
system.cpu.dcache.overall_mshr_miss_rate::.cpu.data     0.015901                       # mshr miss rate for overall accesses
system.cpu.dcache.overall_mshr_miss_rate::total     0.015901                       # mshr miss rate for overall accesses
system.cpu.dcache.demand_avg_mshr_miss_latency::.cpu.data 42171.093967                       # average overall mshr miss latency
system.cpu.dcache.demand_avg_mshr_miss_latency::total 42171.093967                       # average overall mshr miss latency
system.cpu.dcache.overall_avg_mshr_miss_latency::.cpu.data 42532.001655                       # average overall mshr miss latency
system.cpu.dcache.overall_avg_mshr_miss_latency::total 42532.001655                       # average overall mshr miss latency
system.cpu.dcache.replacements                 826581                       # number of replacements
system.cpu.dcache.ReadReq_hits::.cpu.data     40672665                       # number of ReadReq hits
system.cpu.dcache.ReadReq_hits::total        40672665                       # number of ReadReq hits
system.cpu.dcache.ReadReq_misses::.cpu.data       479375                       # number of ReadReq misses
system.cpu.dcache.ReadReq_misses::total        479375                       # number of ReadReq misses
system.cpu.dcache.ReadReq_miss_latency::.cpu.data  13921823000                       # number of ReadReq miss cycles
system.cpu.dcache.ReadReq_miss_latency::total  13921823000                       # number of ReadReq miss cycles
system.cpu.dcache.ReadReq_accesses::.cpu.data     41152040                       # number of ReadReq accesses(hits+misses)
system.cpu.dcache.ReadReq_accesses::total     41152040                       # number of ReadReq accesses(hits+misses)
system.cpu.dcache.ReadReq_miss_rate::.cpu.data     0.011649                       # miss rate for ReadReq accesses
system.cpu.dcache.ReadReq_miss_rate::total     0.011649                       # miss rate for ReadReq accesses
system.cpu.dcache.ReadReq_avg_miss_latency::.cpu.data 29041.612516                       # average ReadReq miss latency
system.cpu.dcache.ReadReq_avg_miss_latency::total 29041.612516                       # average ReadReq miss latency
system.cpu.dcache.ReadReq_mshr_hits::.cpu.data         3912                       # number of ReadReq MSHR hits
system.cpu.dcache.ReadReq_mshr_hits::total         3912                       # number of ReadReq MSHR hits
system.cpu.dcache.ReadReq_mshr_misses::.cpu.data       475463                       # number of ReadReq MSHR misses
system.cpu.dcache.ReadReq_mshr_misses::total       475463                       # number of ReadReq MSHR misses
system.cpu.dcache.ReadReq_mshr_miss_latency::.cpu.data  13121530000                       # number of ReadReq MSHR miss cycles
system.cpu.dcache.ReadReq_mshr_miss_latency::total  13121530000                       # number of ReadReq MSHR miss cycles
system.cpu.dcache.ReadReq_mshr_miss_rate::.cpu.data     0.011554                       # mshr miss rate for ReadReq accesses
system.cpu.dcache.ReadReq_mshr_miss_rate::total     0.011554                       # mshr miss rate for ReadReq accesses
system.cpu.dcache.ReadReq_avg_mshr_miss_latency::.cpu.data 27597.373508                       # average ReadReq mshr miss latency
system.cpu.dcache.ReadReq_avg_mshr_miss_latency::total 27597.373508                       # average ReadReq mshr miss latency
system.cpu.dcache.WriteReq_hits::.cpu.data     10484894                       # number of WriteReq hits
system.cpu.dcache.WriteReq_hits::total       10484894                       # number of WriteReq hits
system.cpu.dcache.WriteReq_misses::.cpu.data       465399                       # number of WriteReq misses
system.cpu.dcache.WriteReq_misses::total       465399                       # number of WriteReq misses
system.cpu.dcache.WriteReq_miss_latency::.cpu.data  27334492000                       # number of WriteReq miss cycles
system.cpu.dcache.WriteReq_miss_latency::total  27334492000                       # number of WriteReq miss cycles
system.cpu.dcache.WriteReq_accesses::.cpu.data     10950293                       # number of WriteReq accesses(hits+misses)
system.cpu.dcache.WriteReq_accesses::total     10950293                       # number of WriteReq accesses(hits+misses)
system.cpu.dcache.WriteReq_miss_rate::.cpu.data     0.042501                       # miss rate for WriteReq accesses
system.cpu.dcache.WriteReq_miss_rate::total     0.042501                       # miss rate for WriteReq accesses
system.cpu.dcache.WriteReq_avg_miss_latency::.cpu.data 58733.456668                       # average WriteReq miss latency
system.cpu.dcache.WriteReq_avg_miss_latency::total 58733.456668                       # average WriteReq miss latency
system.cpu.dcache.WriteReq_mshr_hits::.cpu.data       120234                       # number of WriteReq MSHR hits
system.cpu.dcache.WriteReq_mshr_hits::total       120234                       # number of WriteReq MSHR hits
system.cpu.dcache.WriteReq_mshr_misses::.cpu.data       345165                       # number of WriteReq MSHR misses
system.cpu.dcache.WriteReq_mshr_misses::total       345165                       # number of WriteReq MSHR misses
system.cpu.dcache.WriteReq_mshr_miss_latency::.cpu.data  21485250500                       # number of WriteReq MSHR miss cycles
system.cpu.dcache.WriteReq_mshr_miss_latency::total  21485250500                       # number of WriteReq MSHR miss cycles
system.cpu.dcache.WriteReq_mshr_miss_rate::.cpu.data     0.031521                       # mshr miss rate for WriteReq accesses
system.cpu.dcache.WriteReq_mshr_miss_rate::total     0.031521                       # mshr miss rate for WriteReq accesses
system.cpu.dcache.WriteReq_avg_mshr_miss_latency::.cpu.data 62246.318427                       # average WriteReq mshr miss latency
system.cpu.dcache.WriteReq_avg_mshr_miss_latency::total 62246.318427                       # average WriteReq mshr miss latency
system.cpu.dcache.SoftPFReq_hits::.cpu.data          417                       # number of SoftPFReq hits
system.cpu.dcache.SoftPFReq_hits::total           417                       # number of SoftPFReq hits
system.cpu.dcache.SoftPFReq_misses::.cpu.data         8001                       # number of SoftPFReq misses
system.cpu.dcache.SoftPFReq_misses::total         8001                       # number of SoftPFReq misses
system.cpu.dcache.SoftPFReq_accesses::.cpu.data         8418                       # number of SoftPFReq accesses(hits+misses)
system.cpu.dcache.SoftPFReq_accesses::total         8418                       # number of SoftPFReq accesses(hits+misses)
system.cpu.dcache.SoftPFReq_miss_rate::.cpu.data     0.950463                       # miss rate for SoftPFReq accesses
system.cpu.dcache.SoftPFReq_miss_rate::total     0.950463                       # miss rate for SoftPFReq accesses
system.cpu.dcache.SoftPFReq_mshr_misses::.cpu.data         8001                       # number of SoftPFReq MSHR misses
system.cpu.dcache.SoftPFReq_mshr_misses::total         8001                       # number of SoftPFReq MSHR misses
system.cpu.dcache.SoftPFReq_mshr_miss_latency::.cpu.data    636469499                       # number of SoftPFReq MSHR miss cycles
system.cpu.dcache.SoftPFReq_mshr_miss_latency::total    636469499                       # number of SoftPFReq MSHR miss cycles
system.cpu.dcache.SoftPFReq_mshr_miss_rate::.cpu.data     0.950463                       # mshr miss rate for SoftPFReq accesses
system.cpu.dcache.SoftPFReq_mshr_miss_rate::total     0.950463                       # mshr miss rate for SoftPFReq accesses
system.cpu.dcache.SoftPFReq_avg_mshr_miss_latency::.cpu.data 79548.743782                       # average SoftPFReq mshr miss latency
system.cpu.dcache.SoftPFReq_avg_mshr_miss_latency::total 79548.743782                       # average SoftPFReq mshr miss latency
system.cpu.dcache.LoadLockedReq_hits::.cpu.data           37                       # number of LoadLockedReq hits
system.cpu.dcache.LoadLockedReq_hits::total           37                       # number of LoadLockedReq hits
system.cpu.dcache.LoadLockedReq_misses::.cpu.data            1                       # number of LoadLockedReq misses
system.cpu.dcache.LoadLockedReq_misses::total            1                       # number of LoadLockedReq misses
system.cpu.dcache.LoadLockedReq_miss_latency::.cpu.data        72500                       # number of LoadLockedReq miss cycles
system.cpu.dcache.LoadLockedReq_miss_latency::total        72500                       # number of LoadLockedReq miss cycles
system.cpu.dcache.LoadLockedReq_accesses::.cpu.data           38                       # number of LoadLockedReq accesses(hits+misses)
system.cpu.dcache.LoadLockedReq_accesses::total           38                       # number of LoadLockedReq accesses(hits+misses)
system.cpu.dcache.LoadLockedReq_miss_rate::.cpu.data     0.026316                       # miss rate for LoadLockedReq accesses
system.cpu.dcache.LoadLockedReq_miss_rate::total     0.026316                       # miss rate for LoadLockedReq accesses
system.cpu.dcache.LoadLockedReq_avg_miss_latency::.cpu.data        72500                       # average LoadLockedReq miss latency
system.cpu.dcache.LoadLockedReq_avg_miss_latency::total        72500                       # average LoadLockedReq miss latency
system.cpu.dcache.LoadLockedReq_mshr_misses::.cpu.data            1                       # number of LoadLockedReq MSHR misses
system.cpu.dcache.LoadLockedReq_mshr_misses::total            1                       # number of LoadLockedReq MSHR misses
system.cpu.dcache.LoadLockedReq_mshr_miss_latency::.cpu.data        71500                       # number of LoadLockedReq MSHR miss cycles
system.cpu.dcache.LoadLockedReq_mshr_miss_latency::total        71500                       # number of LoadLockedReq MSHR miss cycles
system.cpu.dcache.LoadLockedReq_mshr_miss_rate::.cpu.data     0.026316                       # mshr miss rate for LoadLockedReq accesses
system.cpu.dcache.LoadLockedReq_mshr_miss_rate::total     0.026316                       # mshr miss rate for LoadLockedReq accesses
system.cpu.dcache.LoadLockedReq_avg_mshr_miss_latency::.cpu.data        71500                       # average LoadLockedReq mshr miss latency
system.cpu.dcache.LoadLockedReq_avg_mshr_miss_latency::total        71500                       # average LoadLockedReq mshr miss latency
system.cpu.dcache.StoreCondReq_hits::.cpu.data           38                       # number of StoreCondReq hits
system.cpu.dcache.StoreCondReq_hits::total           38                       # number of StoreCondReq hits
system.cpu.dcache.StoreCondReq_accesses::.cpu.data           38                       # number of StoreCondReq accesses(hits+misses)
system.cpu.dcache.StoreCondReq_accesses::total           38                       # number of StoreCondReq accesses(hits+misses)
system.cpu.dcache.tags.pwrStateResidencyTicks::UNDEFINED  92612325000                       # Cumulative time (in ticks) in various power states
system.cpu.dcache.tags.tagsinuse          2016.199188                       # Cycle average of tags in use
system.cpu.dcache.tags.total_refs            51986680                       # Total number of references to valid blocks.
system.cpu.dcache.tags.sampled_refs            828629                       # Sample count of references to valid blocks.
system.cpu.dcache.tags.avg_refs             62.738186                       # Average number of references to valid blocks.
system.cpu.dcache.tags.warmup_cycle            176500                       # Cycle when the warmup percentage was hit.
system.cpu.dcache.tags.occ_blocks::.cpu.data  2016.199188                       # Average occupied blocks per requestor
system.cpu.dcache.tags.occ_percent::.cpu.data     0.984472                       # Average percentage of cache occupancy
system.cpu.dcache.tags.occ_percent::total     0.984472                       # Average percentage of cache occupancy
system.cpu.dcache.tags.occ_task_id_blocks::1024         2048                       # Occupied blocks per task id
system.cpu.dcache.tags.age_task_id_blocks_1024::0          205                       # Occupied blocks per task id
system.cpu.dcache.tags.age_task_id_blocks_1024::1          524                       # Occupied blocks per task id
system.cpu.dcache.tags.age_task_id_blocks_1024::2         1280                       # Occupied blocks per task id
system.cpu.dcache.tags.age_task_id_blocks_1024::3           38                       # Occupied blocks per task id
system.cpu.dcache.tags.age_task_id_blocks_1024::4            1                       # Occupied blocks per task id
system.cpu.dcache.tags.occ_task_id_percent::1024            1                       # Percentage of cache occupancy per task id
system.cpu.dcache.tags.tag_accesses         105050283                       # Number of tag accesses
system.cpu.dcache.tags.data_accesses        105050283                       # Number of data accesses
system.cpu.itb.walker.pwrStateResidencyTicks::UNDEFINED  92612325000                       # Cumulative time (in ticks) in various power states
system.cpu.itb.stage2_mmu.stage2_tlb.walker.pwrStateResidencyTicks::UNDEFINED  92612325000                       # Cumulative time (in ticks) in various power states

---------- End Simulation Statistics   ----------
