
---------- Begin Simulation Statistics ----------
final_tick                               513535518500                       # Number of ticks from beginning of simulation (restored from checkpoints and never reset)
host_inst_rate                                  93853                       # Simulator instruction rate (inst/s)
host_mem_usage                                 692796                       # Number of bytes of host memory used
host_op_rate                                   172854                       # Simulator op (including micro ops) rate (op/s)
host_seconds                                  1065.49                       # Real time elapsed on the host
host_tick_rate                              481969674                       # Simulator tick rate (ticks/s)
sim_freq                                 1000000000000                       # Frequency of simulated ticks
sim_insts                                   100000001                       # Number of instructions simulated
sim_ops                                     184174809                       # Number of ops (including micro ops) simulated
sim_seconds                                  0.513536                       # Number of seconds simulated
sim_ticks                                513535518500                       # Number of ticks simulated
system.cpu.branchPred.BTBCorrect                    0                       # Number of correct BTB predictions (this stat may not work properly.
system.cpu.branchPred.BTBHitPct             99.957721                       # BTB Hit Percentage
system.cpu.branchPred.BTBHits                10560971                       # Number of BTB hits
system.cpu.branchPred.BTBLookups             10565438                       # Number of BTB lookups
system.cpu.branchPred.RASInCorrect                  5                       # Number of incorrect RAS predictions.
system.cpu.branchPred.condIncorrect              1454                       # Number of conditional branches incorrect
system.cpu.branchPred.condPredicted          10561966                       # Number of conditional branches predicted
system.cpu.branchPred.indirectHits                 27                       # Number of indirect target hits.
system.cpu.branchPred.indirectLookups             191                       # Number of indirect predictor lookups.
system.cpu.branchPred.indirectMisses              164                       # Number of indirect misses.
system.cpu.branchPred.lookups                10570095                       # Number of BP lookups
system.cpu.branchPred.usedRAS                    2698                       # Number of times the RAS was used to get a target.
system.cpu.branchPredindirectMispredicted           99                       # Number of mispredicted indirect branches.
system.cpu.committedInsts                   100000001                       # Number of instructions committed
system.cpu.committedOps                     184174809                       # Number of ops (including micro ops) committed
system.cpu.cpi                              10.270710                       # CPI: cycles per instruction
system.cpu.discardedOps                          4212                       # Number of ops (including micro ops) which were discarded before commit
system.cpu.dtb.accesses                             0                       # DTB accesses
system.cpu.dtb.align_faults                         0                       # Number of TLB faults due to alignment restrictions
system.cpu.dtb.domain_faults                        0                       # Number of TLB faults due to domain restrictions
system.cpu.dtb.flush_entries                        0                       # Number of entries that have been flushed from TLB
system.cpu.dtb.flush_tlb                            0                       # Number of times complete TLB was flushed
system.cpu.dtb.flush_tlb_asid                       0                       # Number of times TLB was flushed by ASID
system.cpu.dtb.flush_tlb_mva                        0                       # Number of times TLB was flushed by MVA
system.cpu.dtb.flush_tlb_mva_asid                   0                       # Number of times TLB was flushed by MVA & ASID
system.cpu.dtb.hits                                 0                       # DTB hits
system.cpu.dtb.inst_accesses                        0                       # ITB inst accesses
system.cpu.dtb.inst_hits                            0                       # ITB inst hits
system.cpu.dtb.inst_misses                          0                       # ITB inst misses
system.cpu.dtb.misses                               0                       # DTB misses
system.cpu.dtb.perms_faults                         0                       # Number of TLB faults due to permissions restrictions
system.cpu.dtb.prefetch_faults                      0                       # Number of TLB faults due to prefetch
system.cpu.dtb.read_accesses                        0                       # DTB read accesses
system.cpu.dtb.read_hits                            0                       # DTB read hits
system.cpu.dtb.read_misses                          0                       # DTB read misses
system.cpu.dtb.stage2_mmu.stage2_tlb.accesses            0                       # DTB accesses
system.cpu.dtb.stage2_mmu.stage2_tlb.align_faults            0                       # Number of TLB faults due to alignment restrictions
system.cpu.dtb.stage2_mmu.stage2_tlb.domain_faults            0                       # Number of TLB faults due to domain restrictions
system.cpu.dtb.stage2_mmu.stage2_tlb.flush_entries            0                       # Number of entries that have been flushed from TLB
system.cpu.dtb.stage2_mmu.stage2_tlb.flush_tlb            0                       # Number of times complete TLB was flushed
system.cpu.dtb.stage2_mmu.stage2_tlb.flush_tlb_asid            0                       # Number of times TLB was flushed by ASID
system.cpu.dtb.stage2_mmu.stage2_tlb.flush_tlb_mva            0                       # Number of times TLB was flushed by MVA
system.cpu.dtb.stage2_mmu.stage2_tlb.flush_tlb_mva_asid            0                       # Number of times TLB was flushed by MVA & ASID
system.cpu.dtb.stage2_mmu.stage2_tlb.hits            0                       # DTB hits
system.cpu.dtb.stage2_mmu.stage2_tlb.inst_accesses            0                       # ITB inst accesses
system.cpu.dtb.stage2_mmu.stage2_tlb.inst_hits            0                       # ITB inst hits
system.cpu.dtb.stage2_mmu.stage2_tlb.inst_misses            0                       # ITB inst misses
system.cpu.dtb.stage2_mmu.stage2_tlb.misses            0                       # DTB misses
system.cpu.dtb.stage2_mmu.stage2_tlb.perms_faults            0                       # Number of TLB faults due to permissions restrictions
system.cpu.dtb.stage2_mmu.stage2_tlb.prefetch_faults            0                       # Number of TLB faults due to prefetch
system.cpu.dtb.stage2_mmu.stage2_tlb.read_accesses            0                       # DTB read accesses
system.cpu.dtb.stage2_mmu.stage2_tlb.read_hits            0                       # DTB read hits
system.cpu.dtb.stage2_mmu.stage2_tlb.read_misses            0                       # DTB read misses
system.cpu.dtb.stage2_mmu.stage2_tlb.walker.walkRequestOrigin_Requested::Data            0                       # Table walker requests started/completed, data/inst
system.cpu.dtb.stage2_mmu.stage2_tlb.walker.walkRequestOrigin_Requested::Inst            0                       # Table walker requests started/completed, data/inst
system.cpu.dtb.stage2_mmu.stage2_tlb.walker.walkRequestOrigin_Requested::total            0                       # Table walker requests started/completed, data/inst
system.cpu.dtb.stage2_mmu.stage2_tlb.walker.walkRequestOrigin_Completed::Data            0                       # Table walker requests started/completed, data/inst
system.cpu.dtb.stage2_mmu.stage2_tlb.walker.walkRequestOrigin_Completed::Inst            0                       # Table walker requests started/completed, data/inst
system.cpu.dtb.stage2_mmu.stage2_tlb.walker.walkRequestOrigin_Completed::total            0                       # Table walker requests started/completed, data/inst
system.cpu.dtb.stage2_mmu.stage2_tlb.walker.walkRequestOrigin::total            0                       # Table walker requests started/completed, data/inst
system.cpu.dtb.stage2_mmu.stage2_tlb.walker.walks            0                       # Table walker walks requested
system.cpu.dtb.stage2_mmu.stage2_tlb.write_accesses            0                       # DTB write accesses
system.cpu.dtb.stage2_mmu.stage2_tlb.write_hits            0                       # DTB write hits
system.cpu.dtb.stage2_mmu.stage2_tlb.write_misses            0                       # DTB write misses
system.cpu.dtb.walker.walkRequestOrigin_Requested::Data            0                       # Table walker requests started/completed, data/inst
system.cpu.dtb.walker.walkRequestOrigin_Requested::Inst            0                       # Table walker requests started/completed, data/inst
system.cpu.dtb.walker.walkRequestOrigin_Requested::total            0                       # Table walker requests started/completed, data/inst
system.cpu.dtb.walker.walkRequestOrigin_Completed::Data            0                       # Table walker requests started/completed, data/inst
system.cpu.dtb.walker.walkRequestOrigin_Completed::Inst            0                       # Table walker requests started/completed, data/inst
system.cpu.dtb.walker.walkRequestOrigin_Completed::total            0                       # Table walker requests started/completed, data/inst
system.cpu.dtb.walker.walkRequestOrigin::total            0                       # Table walker requests started/completed, data/inst
system.cpu.dtb.walker.walks                         0                       # Table walker walks requested
system.cpu.dtb.write_accesses                       0                       # DTB write accesses
system.cpu.dtb.write_hits                           0                       # DTB write hits
system.cpu.dtb.write_misses                         0                       # DTB write misses
system.cpu.fetch2.amo_instructions                  0                       # Number of memory atomic instructions successfully decoded
system.cpu.fetch2.fp_instructions                   0                       # Number of floating point instructions successfully decoded
system.cpu.fetch2.int_instructions           44894501                       # Number of integer instructions successfully decoded
system.cpu.fetch2.load_instructions           2086195                       # Number of memory load instructions successfully decoded
system.cpu.fetch2.store_instructions           169038                       # Number of memory store instructions successfully decoded
system.cpu.fetch2.vec_instructions                  0                       # Number of SIMD instructions successfully decoded
system.cpu.idleCycles                       805865264                       # Total number of cycles that the object has spent stopped
system.cpu.ipc                               0.097364                       # IPC: instructions per cycle
system.cpu.itb.accesses                             0                       # DTB accesses
system.cpu.itb.align_faults                         0                       # Number of TLB faults due to alignment restrictions
system.cpu.itb.domain_faults                        0                       # Number of TLB faults due to domain restrictions
system.cpu.itb.flush_entries                        0                       # Number of entries that have been flushed from TLB
system.cpu.itb.flush_tlb                            0                       # Number of times complete TLB was flushed
system.cpu.itb.flush_tlb_asid                       0                       # Number of times TLB was flushed by ASID
system.cpu.itb.flush_tlb_mva                        0                       # Number of times TLB was flushed by MVA
system.cpu.itb.flush_tlb_mva_asid                   0                       # Number of times TLB was flushed by MVA & ASID
system.cpu.itb.hits                                 0                       # DTB hits
system.cpu.itb.inst_accesses                        0                       # ITB inst accesses
system.cpu.itb.inst_hits                            0                       # ITB inst hits
system.cpu.itb.inst_misses                          0                       # ITB inst misses
system.cpu.itb.misses                               0                       # DTB misses
system.cpu.itb.perms_faults                         0                       # Number of TLB faults due to permissions restrictions
system.cpu.itb.prefetch_faults                      0                       # Number of TLB faults due to prefetch
system.cpu.itb.read_accesses                        0                       # DTB read accesses
system.cpu.itb.read_hits                            0                       # DTB read hits
system.cpu.itb.read_misses                          0                       # DTB read misses
system.cpu.itb.stage2_mmu.stage2_tlb.accesses            0                       # DTB accesses
system.cpu.itb.stage2_mmu.stage2_tlb.align_faults            0                       # Number of TLB faults due to alignment restrictions
system.cpu.itb.stage2_mmu.stage2_tlb.domain_faults            0                       # Number of TLB faults due to domain restrictions
system.cpu.itb.stage2_mmu.stage2_tlb.flush_entries            0                       # Number of entries that have been flushed from TLB
system.cpu.itb.stage2_mmu.stage2_tlb.flush_tlb            0                       # Number of times complete TLB was flushed
system.cpu.itb.stage2_mmu.stage2_tlb.flush_tlb_asid            0                       # Number of times TLB was flushed by ASID
system.cpu.itb.stage2_mmu.stage2_tlb.flush_tlb_mva            0                       # Number of times TLB was flushed by MVA
system.cpu.itb.stage2_mmu.stage2_tlb.flush_tlb_mva_asid            0                       # Number of times TLB was flushed by MVA & ASID
system.cpu.itb.stage2_mmu.stage2_tlb.hits            0                       # DTB hits
system.cpu.itb.stage2_mmu.stage2_tlb.inst_accesses            0                       # ITB inst accesses
system.cpu.itb.stage2_mmu.stage2_tlb.inst_hits            0                       # ITB inst hits
system.cpu.itb.stage2_mmu.stage2_tlb.inst_misses            0                       # ITB inst misses
system.cpu.itb.stage2_mmu.stage2_tlb.misses            0                       # DTB misses
system.cpu.itb.stage2_mmu.stage2_tlb.perms_faults            0                       # Number of TLB faults due to permissions restrictions
system.cpu.itb.stage2_mmu.stage2_tlb.prefetch_faults            0                       # Number of TLB faults due to prefetch
system.cpu.itb.stage2_mmu.stage2_tlb.read_accesses            0                       # DTB read accesses
system.cpu.itb.stage2_mmu.stage2_tlb.read_hits            0                       # DTB read hits
system.cpu.itb.stage2_mmu.stage2_tlb.read_misses            0                       # DTB read misses
system.cpu.itb.stage2_mmu.stage2_tlb.walker.walkRequestOrigin_Requested::Data            0                       # Table walker requests started/completed, data/inst
system.cpu.itb.stage2_mmu.stage2_tlb.walker.walkRequestOrigin_Requested::Inst            0                       # Table walker requests started/completed, data/inst
system.cpu.itb.stage2_mmu.stage2_tlb.walker.walkRequestOrigin_Requested::total            0                       # Table walker requests started/completed, data/inst
system.cpu.itb.stage2_mmu.stage2_tlb.walker.walkRequestOrigin_Completed::Data            0                       # Table walker requests started/completed, data/inst
system.cpu.itb.stage2_mmu.stage2_tlb.walker.walkRequestOrigin_Completed::Inst            0                       # Table walker requests started/completed, data/inst
system.cpu.itb.stage2_mmu.stage2_tlb.walker.walkRequestOrigin_Completed::total            0                       # Table walker requests started/completed, data/inst
system.cpu.itb.stage2_mmu.stage2_tlb.walker.walkRequestOrigin::total            0                       # Table walker requests started/completed, data/inst
system.cpu.itb.stage2_mmu.stage2_tlb.walker.walks            0                       # Table walker walks requested
system.cpu.itb.stage2_mmu.stage2_tlb.write_accesses            0                       # DTB write accesses
system.cpu.itb.stage2_mmu.stage2_tlb.write_hits            0                       # DTB write hits
system.cpu.itb.stage2_mmu.stage2_tlb.write_misses            0                       # DTB write misses
system.cpu.itb.walker.walkRequestOrigin_Requested::Data            0                       # Table walker requests started/completed, data/inst
system.cpu.itb.walker.walkRequestOrigin_Requested::Inst            0                       # Table walker requests started/completed, data/inst
system.cpu.itb.walker.walkRequestOrigin_Requested::total            0                       # Table walker requests started/completed, data/inst
system.cpu.itb.walker.walkRequestOrigin_Completed::Data            0                       # Table walker requests started/completed, data/inst
system.cpu.itb.walker.walkRequestOrigin_Completed::Inst            0                       # Table walker requests started/completed, data/inst
system.cpu.itb.walker.walkRequestOrigin_Completed::total            0                       # Table walker requests started/completed, data/inst
system.cpu.itb.walker.walkRequestOrigin::total            0                       # Table walker requests started/completed, data/inst
system.cpu.itb.walker.walks                         0                       # Table walker walks requested
system.cpu.itb.write_accesses                       0                       # DTB write accesses
system.cpu.itb.write_hits                           0                       # DTB write hits
system.cpu.itb.write_misses                         0                       # DTB write misses
system.cpu.numCycles                       1027071037                       # number of cpu cycles simulated
system.cpu.numFetchSuspends                         0                       # Number of times Execute suspended instruction fetching
system.cpu.numWorkItemsCompleted                    0                       # number of work items this cpu completed
system.cpu.numWorkItemsStarted                      0                       # number of work items this cpu started
system.cpu.op_class_0::No_OpClass                   0      0.00%      0.00% # Class of committed instruction
system.cpu.op_class_0::IntAlu                97640484     53.02%     53.02% # Class of committed instruction
system.cpu.op_class_0::IntMult                 114699      0.06%     53.08% # Class of committed instruction
system.cpu.op_class_0::IntDiv                       0      0.00%     53.08% # Class of committed instruction
system.cpu.op_class_0::FloatAdd                     0      0.00%     53.08% # Class of committed instruction
system.cpu.op_class_0::FloatCmp                     0      0.00%     53.08% # Class of committed instruction
system.cpu.op_class_0::FloatCvt                     0      0.00%     53.08% # Class of committed instruction
system.cpu.op_class_0::FloatMult                    0      0.00%     53.08% # Class of committed instruction
system.cpu.op_class_0::FloatMultAcc                 0      0.00%     53.08% # Class of committed instruction
system.cpu.op_class_0::FloatDiv                     0      0.00%     53.08% # Class of committed instruction
system.cpu.op_class_0::FloatMisc                    0      0.00%     53.08% # Class of committed instruction
system.cpu.op_class_0::FloatSqrt                    0      0.00%     53.08% # Class of committed instruction
system.cpu.op_class_0::SimdAdd                      8      0.00%     53.08% # Class of committed instruction
system.cpu.op_class_0::SimdAddAcc                   0      0.00%     53.08% # Class of committed instruction
system.cpu.op_class_0::SimdAlu                      8      0.00%     53.08% # Class of committed instruction
system.cpu.op_class_0::SimdCmp                      6      0.00%     53.08% # Class of committed instruction
system.cpu.op_class_0::SimdCvt                      0      0.00%     53.08% # Class of committed instruction
system.cpu.op_class_0::SimdMisc                     1      0.00%     53.08% # Class of committed instruction
system.cpu.op_class_0::SimdMult                     0      0.00%     53.08% # Class of committed instruction
system.cpu.op_class_0::SimdMultAcc                  0      0.00%     53.08% # Class of committed instruction
system.cpu.op_class_0::SimdShift                    0      0.00%     53.08% # Class of committed instruction
system.cpu.op_class_0::SimdShiftAcc                 0      0.00%     53.08% # Class of committed instruction
system.cpu.op_class_0::SimdDiv                      0      0.00%     53.08% # Class of committed instruction
system.cpu.op_class_0::SimdSqrt                     0      0.00%     53.08% # Class of committed instruction
system.cpu.op_class_0::SimdFloatAdd                 0      0.00%     53.08% # Class of committed instruction
system.cpu.op_class_0::SimdFloatAlu                 0      0.00%     53.08% # Class of committed instruction
system.cpu.op_class_0::SimdFloatCmp                 0      0.00%     53.08% # Class of committed instruction
system.cpu.op_class_0::SimdFloatCvt                 0      0.00%     53.08% # Class of committed instruction
system.cpu.op_class_0::SimdFloatDiv                 0      0.00%     53.08% # Class of committed instruction
system.cpu.op_class_0::SimdFloatMisc               23      0.00%     53.08% # Class of committed instruction
system.cpu.op_class_0::SimdFloatMult                0      0.00%     53.08% # Class of committed instruction
system.cpu.op_class_0::SimdFloatMultAcc             0      0.00%     53.08% # Class of committed instruction
system.cpu.op_class_0::SimdFloatSqrt                0      0.00%     53.08% # Class of committed instruction
system.cpu.op_class_0::SimdReduceAdd                0      0.00%     53.08% # Class of committed instruction
system.cpu.op_class_0::SimdReduceAlu                0      0.00%     53.08% # Class of committed instruction
system.cpu.op_class_0::SimdReduceCmp                0      0.00%     53.08% # Class of committed instruction
system.cpu.op_class_0::SimdFloatReduceAdd            0      0.00%     53.08% # Class of committed instruction
system.cpu.op_class_0::SimdFloatReduceCmp            0      0.00%     53.08% # Class of committed instruction
system.cpu.op_class_0::SimdAes                      0      0.00%     53.08% # Class of committed instruction
system.cpu.op_class_0::SimdAesMix                   0      0.00%     53.08% # Class of committed instruction
system.cpu.op_class_0::SimdSha1Hash                 0      0.00%     53.08% # Class of committed instruction
system.cpu.op_class_0::SimdSha1Hash2                0      0.00%     53.08% # Class of committed instruction
system.cpu.op_class_0::SimdSha256Hash               0      0.00%     53.08% # Class of committed instruction
system.cpu.op_class_0::SimdSha256Hash2              0      0.00%     53.08% # Class of committed instruction
system.cpu.op_class_0::SimdShaSigma2                0      0.00%     53.08% # Class of committed instruction
system.cpu.op_class_0::SimdShaSigma3                0      0.00%     53.08% # Class of committed instruction
system.cpu.op_class_0::SimdPredAlu                  0      0.00%     53.08% # Class of committed instruction
system.cpu.op_class_0::MemRead                2082680      1.13%     54.21% # Class of committed instruction
system.cpu.op_class_0::MemWrite              84336900     45.79%    100.00% # Class of committed instruction
system.cpu.op_class_0::FloatMemRead                 0      0.00%    100.00% # Class of committed instruction
system.cpu.op_class_0::FloatMemWrite                0      0.00%    100.00% # Class of committed instruction
system.cpu.op_class_0::IprAccess                    0      0.00%    100.00% # Class of committed instruction
system.cpu.op_class_0::InstPrefetch                 0      0.00%    100.00% # Class of committed instruction
system.cpu.op_class_0::total                184174809                       # Class of committed instruction
system.cpu.tickCycles                       221205773                       # Number of cycles that the object actually ticked
system.cpu.workload.numSyscalls                    18                       # Number of system calls
system.membus.snoop_filter.hit_multi_requests            0                       # Number of requests hitting in the snoop filter with multiple (>1) holders of the requested data.
system.membus.snoop_filter.hit_multi_snoops            0                       # Number of snoops hitting in the snoop filter with multiple (>1) holders of the requested data.
system.membus.snoop_filter.hit_single_requests      5231106                       # Number of requests hitting in the snoop filter with a single holder of the requested data.
system.membus.snoop_filter.hit_single_snoops            0                       # Number of snoops hitting in the snoop filter with a single holder of the requested data.
system.membus.snoop_filter.tot_requests      10495039                       # Total number of requests made to the snoop filter.
system.membus.snoop_filter.tot_snoops               0                       # Total number of snoops made to the snoop filter.
system.tol2bus.snoop_filter.hit_multi_requests           80                       # Number of requests hitting in the snoop filter with multiple (>1) holders of the requested data.
system.tol2bus.snoop_filter.hit_multi_snoops            0                       # Number of snoops hitting in the snoop filter with multiple (>1) holders of the requested data.
system.tol2bus.snoop_filter.hit_single_requests      5263346                       # Number of requests hitting in the snoop filter with a single holder of the requested data.
system.tol2bus.snoop_filter.hit_single_snoops          136                       # Number of snoops hitting in the snoop filter with a single holder of the requested data.
system.tol2bus.snoop_filter.tot_requests     10527780                       # Total number of requests made to the snoop filter.
system.tol2bus.snoop_filter.tot_snoops            136                       # Total number of snoops made to the snoop filter.
system.membus.pwrStateResidencyTicks::UNDEFINED 513535518500                       # Cumulative time (in ticks) in various power states
system.membus.trans_dist::ReadResp                915                       # Transaction distribution
system.membus.trans_dist::WritebackDirty      5230284                       # Transaction distribution
system.membus.trans_dist::CleanEvict              817                       # Transaction distribution
system.membus.trans_dist::ReadExReq           5263023                       # Transaction distribution
system.membus.trans_dist::ReadExResp          5263023                       # Transaction distribution
system.membus.trans_dist::ReadSharedReq           915                       # Transaction distribution
system.membus.pkt_count_system.l2.mem_side::system.mem_ctrls.port     15758977                       # Packet count per connected master and slave (bytes)
system.membus.pkt_count::total               15758977                       # Packet count per connected master and slave (bytes)
system.membus.pkt_size_system.l2.mem_side::system.mem_ctrls.port    671630208                       # Cumulative packet size per connected master and slave (bytes)
system.membus.pkt_size::total               671630208                       # Cumulative packet size per connected master and slave (bytes)
system.membus.snoops                                0                       # Total snoops (count)
system.membus.snoopTraffic                          0                       # Total snoop traffic (bytes)
system.membus.snoop_fanout::samples           5263938                       # Request fanout histogram
system.membus.snoop_fanout::mean                    0                       # Request fanout histogram
system.membus.snoop_fanout::stdev                   0                       # Request fanout histogram
system.membus.snoop_fanout::underflows              0      0.00%      0.00% # Request fanout histogram
system.membus.snoop_fanout::0                 5263938    100.00%    100.00% # Request fanout histogram
system.membus.snoop_fanout::1                       0      0.00%    100.00% # Request fanout histogram
system.membus.snoop_fanout::overflows               0      0.00%    100.00% # Request fanout histogram
system.membus.snoop_fanout::min_value               0                       # Request fanout histogram
system.membus.snoop_fanout::max_value               0                       # Request fanout histogram
system.membus.snoop_fanout::total             5263938                       # Request fanout histogram
system.membus.respLayer1.occupancy        27681526500                       # Layer occupancy (ticks)
system.membus.respLayer1.utilization              5.4                       # Layer utilization (%)
system.membus.reqLayer0.occupancy         31416959500                       # Layer occupancy (ticks)
system.membus.reqLayer0.utilization               6.1                       # Layer utilization (%)
system.tol2bus.pwrStateResidencyTicks::UNDEFINED 513535518500                       # Cumulative time (in ticks) in various power states
system.tol2bus.trans_dist::ReadResp              1381                       # Transaction distribution
system.tol2bus.trans_dist::WritebackDirty     10492354                       # Transaction distribution
system.tol2bus.trans_dist::WritebackClean          960                       # Transaction distribution
system.tol2bus.trans_dist::CleanEvict            1269                       # Transaction distribution
system.tol2bus.trans_dist::ReadExReq          5263053                       # Transaction distribution
system.tol2bus.trans_dist::ReadExResp         5263053                       # Transaction distribution
system.tol2bus.trans_dist::ReadCleanReq          1024                       # Transaction distribution
system.tol2bus.trans_dist::ReadSharedReq          357                       # Transaction distribution
system.tol2bus.pkt_count_system.cpu.icache.mem_side::system.l2.cpu_side         3008                       # Packet count per connected master and slave (bytes)
system.tol2bus.pkt_count_system.cpu.dcache.mem_side::system.l2.cpu_side     15789206                       # Packet count per connected master and slave (bytes)
system.tol2bus.pkt_count::total              15792214                       # Packet count per connected master and slave (bytes)
system.tol2bus.pkt_size_system.cpu.icache.mem_side::system.l2.cpu_side       126976                       # Cumulative packet size per connected master and slave (bytes)
system.tol2bus.pkt_size_system.cpu.dcache.mem_side::system.l2.cpu_side    673630720                       # Cumulative packet size per connected master and slave (bytes)
system.tol2bus.pkt_size::total              673757696                       # Cumulative packet size per connected master and slave (bytes)
system.tol2bus.snoops                         5231237                       # Total snoops (count)
system.tol2bus.snoopTraffic                 334738176                       # Total snoop traffic (bytes)
system.tol2bus.snoop_fanout::samples         10495671                       # Request fanout histogram
system.tol2bus.snoop_fanout::mean            0.000021                       # Request fanout histogram
system.tol2bus.snoop_fanout::stdev           0.004536                       # Request fanout histogram
system.tol2bus.snoop_fanout::underflows             0      0.00%      0.00% # Request fanout histogram
system.tol2bus.snoop_fanout::0               10495455    100.00%    100.00% # Request fanout histogram
system.tol2bus.snoop_fanout::1                    216      0.00%    100.00% # Request fanout histogram
system.tol2bus.snoop_fanout::2                      0      0.00%    100.00% # Request fanout histogram
system.tol2bus.snoop_fanout::overflows              0      0.00%    100.00% # Request fanout histogram
system.tol2bus.snoop_fanout::min_value              0                       # Request fanout histogram
system.tol2bus.snoop_fanout::max_value              1                       # Request fanout histogram
system.tol2bus.snoop_fanout::total           10495671                       # Request fanout histogram
system.tol2bus.reqLayer0.occupancy        10526920000                       # Layer occupancy (ticks)
system.tol2bus.reqLayer0.utilization              2.0                       # Layer utilization (%)
system.tol2bus.respLayer1.occupancy        7895117495                       # Layer occupancy (ticks)
system.tol2bus.respLayer1.utilization             1.5                       # Layer utilization (%)
system.tol2bus.respLayer0.occupancy           1536499                       # Layer occupancy (ticks)
system.tol2bus.respLayer0.utilization             0.0                       # Layer utilization (%)
system.voltage_domain.voltage                       1                       # Voltage in Volts
system.clk_domain.clock                          1000                       # Clock period in ticks
system.l2.pwrStateResidencyTicks::UNDEFINED 513535518500                       # Cumulative time (in ticks) in various power states
system.l2.demand_hits::.cpu.inst                  388                       # number of demand (read+write) hits
system.l2.demand_hits::.cpu.data                  102                       # number of demand (read+write) hits
system.l2.demand_hits::total                      490                       # number of demand (read+write) hits
system.l2.overall_hits::.cpu.inst                 388                       # number of overall hits
system.l2.overall_hits::.cpu.data                 102                       # number of overall hits
system.l2.overall_hits::total                     490                       # number of overall hits
system.l2.demand_misses::.cpu.inst                636                       # number of demand (read+write) misses
system.l2.demand_misses::.cpu.data            5263308                       # number of demand (read+write) misses
system.l2.demand_misses::total                5263944                       # number of demand (read+write) misses
system.l2.overall_misses::.cpu.inst               636                       # number of overall misses
system.l2.overall_misses::.cpu.data           5263308                       # number of overall misses
system.l2.overall_misses::total               5263944                       # number of overall misses
system.l2.demand_miss_latency::.cpu.inst     50489500                       # number of demand (read+write) miss cycles
system.l2.demand_miss_latency::.cpu.data 423932513500                       # number of demand (read+write) miss cycles
system.l2.demand_miss_latency::total     423983003000                       # number of demand (read+write) miss cycles
system.l2.overall_miss_latency::.cpu.inst     50489500                       # number of overall miss cycles
system.l2.overall_miss_latency::.cpu.data 423932513500                       # number of overall miss cycles
system.l2.overall_miss_latency::total    423983003000                       # number of overall miss cycles
system.l2.demand_accesses::.cpu.inst             1024                       # number of demand (read+write) accesses
system.l2.demand_accesses::.cpu.data          5263410                       # number of demand (read+write) accesses
system.l2.demand_accesses::total              5264434                       # number of demand (read+write) accesses
system.l2.overall_accesses::.cpu.inst            1024                       # number of overall (read+write) accesses
system.l2.overall_accesses::.cpu.data         5263410                       # number of overall (read+write) accesses
system.l2.overall_accesses::total             5264434                       # number of overall (read+write) accesses
system.l2.demand_miss_rate::.cpu.inst        0.621094                       # miss rate for demand accesses
system.l2.demand_miss_rate::.cpu.data        0.999981                       # miss rate for demand accesses
system.l2.demand_miss_rate::total            0.999907                       # miss rate for demand accesses
system.l2.overall_miss_rate::.cpu.inst       0.621094                       # miss rate for overall accesses
system.l2.overall_miss_rate::.cpu.data       0.999981                       # miss rate for overall accesses
system.l2.overall_miss_rate::total           0.999907                       # miss rate for overall accesses
system.l2.demand_avg_miss_latency::.cpu.inst 79386.006289                       # average overall miss latency
system.l2.demand_avg_miss_latency::.cpu.data 80544.880425                       # average overall miss latency
system.l2.demand_avg_miss_latency::total 80544.740408                       # average overall miss latency
system.l2.overall_avg_miss_latency::.cpu.inst 79386.006289                       # average overall miss latency
system.l2.overall_avg_miss_latency::.cpu.data 80544.880425                       # average overall miss latency
system.l2.overall_avg_miss_latency::total 80544.740408                       # average overall miss latency
system.l2.blocked_cycles::no_mshrs                  0                       # number of cycles access was blocked
system.l2.blocked_cycles::no_targets                0                       # number of cycles access was blocked
system.l2.blocked::no_mshrs                         0                       # number of cycles access was blocked
system.l2.blocked::no_targets                       0                       # number of cycles access was blocked
system.l2.avg_blocked_cycles::no_mshrs            nan                       # average number of cycles each access was blocked
system.l2.avg_blocked_cycles::no_targets          nan                       # average number of cycles each access was blocked
system.l2.writebacks::.writebacks             5230284                       # number of writebacks
system.l2.writebacks::total                   5230284                       # number of writebacks
system.l2.demand_mshr_hits::.cpu.inst               1                       # number of demand (read+write) MSHR hits
system.l2.demand_mshr_hits::.cpu.data               5                       # number of demand (read+write) MSHR hits
system.l2.demand_mshr_hits::total                   6                       # number of demand (read+write) MSHR hits
system.l2.overall_mshr_hits::.cpu.inst              1                       # number of overall MSHR hits
system.l2.overall_mshr_hits::.cpu.data              5                       # number of overall MSHR hits
system.l2.overall_mshr_hits::total                  6                       # number of overall MSHR hits
system.l2.demand_mshr_misses::.cpu.inst           635                       # number of demand (read+write) MSHR misses
system.l2.demand_mshr_misses::.cpu.data       5263303                       # number of demand (read+write) MSHR misses
system.l2.demand_mshr_misses::total           5263938                       # number of demand (read+write) MSHR misses
system.l2.overall_mshr_misses::.cpu.inst          635                       # number of overall MSHR misses
system.l2.overall_mshr_misses::.cpu.data      5263303                       # number of overall MSHR misses
system.l2.overall_mshr_misses::total          5263938                       # number of overall MSHR misses
system.l2.demand_mshr_miss_latency::.cpu.inst     44056000                       # number of demand (read+write) MSHR miss cycles
system.l2.demand_mshr_miss_latency::.cpu.data 371299144000                       # number of demand (read+write) MSHR miss cycles
system.l2.demand_mshr_miss_latency::total 371343200000                       # number of demand (read+write) MSHR miss cycles
system.l2.overall_mshr_miss_latency::.cpu.inst     44056000                       # number of overall MSHR miss cycles
system.l2.overall_mshr_miss_latency::.cpu.data 371299144000                       # number of overall MSHR miss cycles
system.l2.overall_mshr_miss_latency::total 371343200000                       # number of overall MSHR miss cycles
system.l2.demand_mshr_miss_rate::.cpu.inst     0.620117                       # mshr miss rate for demand accesses
system.l2.demand_mshr_miss_rate::.cpu.data     0.999980                       # mshr miss rate for demand accesses
system.l2.demand_mshr_miss_rate::total       0.999906                       # mshr miss rate for demand accesses
system.l2.overall_mshr_miss_rate::.cpu.inst     0.620117                       # mshr miss rate for overall accesses
system.l2.overall_mshr_miss_rate::.cpu.data     0.999980                       # mshr miss rate for overall accesses
system.l2.overall_mshr_miss_rate::total      0.999906                       # mshr miss rate for overall accesses
system.l2.demand_avg_mshr_miss_latency::.cpu.inst 69379.527559                       # average overall mshr miss latency
system.l2.demand_avg_mshr_miss_latency::.cpu.data 70544.892437                       # average overall mshr miss latency
system.l2.demand_avg_mshr_miss_latency::total 70544.751857                       # average overall mshr miss latency
system.l2.overall_avg_mshr_miss_latency::.cpu.inst 69379.527559                       # average overall mshr miss latency
system.l2.overall_avg_mshr_miss_latency::.cpu.data 70544.892437                       # average overall mshr miss latency
system.l2.overall_avg_mshr_miss_latency::total 70544.751857                       # average overall mshr miss latency
system.l2.replacements                        5231237                       # number of replacements
system.l2.WritebackDirty_hits::.writebacks      5262070                       # number of WritebackDirty hits
system.l2.WritebackDirty_hits::total          5262070                       # number of WritebackDirty hits
system.l2.WritebackDirty_accesses::.writebacks      5262070                       # number of WritebackDirty accesses(hits+misses)
system.l2.WritebackDirty_accesses::total      5262070                       # number of WritebackDirty accesses(hits+misses)
system.l2.WritebackClean_hits::.writebacks          911                       # number of WritebackClean hits
system.l2.WritebackClean_hits::total              911                       # number of WritebackClean hits
system.l2.WritebackClean_accesses::.writebacks          911                       # number of WritebackClean accesses(hits+misses)
system.l2.WritebackClean_accesses::total          911                       # number of WritebackClean accesses(hits+misses)
system.l2.ReadExReq_hits::.cpu.data                30                       # number of ReadExReq hits
system.l2.ReadExReq_hits::total                    30                       # number of ReadExReq hits
system.l2.ReadExReq_misses::.cpu.data         5263023                       # number of ReadExReq misses
system.l2.ReadExReq_misses::total             5263023                       # number of ReadExReq misses
system.l2.ReadExReq_miss_latency::.cpu.data 423907374000                       # number of ReadExReq miss cycles
system.l2.ReadExReq_miss_latency::total  423907374000                       # number of ReadExReq miss cycles
system.l2.ReadExReq_accesses::.cpu.data       5263053                       # number of ReadExReq accesses(hits+misses)
system.l2.ReadExReq_accesses::total           5263053                       # number of ReadExReq accesses(hits+misses)
system.l2.ReadExReq_miss_rate::.cpu.data     0.999994                       # miss rate for ReadExReq accesses
system.l2.ReadExReq_miss_rate::total         0.999994                       # miss rate for ReadExReq accesses
system.l2.ReadExReq_avg_miss_latency::.cpu.data 80544.465415                       # average ReadExReq miss latency
system.l2.ReadExReq_avg_miss_latency::total 80544.465415                       # average ReadExReq miss latency
system.l2.ReadExReq_mshr_misses::.cpu.data      5263023                       # number of ReadExReq MSHR misses
system.l2.ReadExReq_mshr_misses::total        5263023                       # number of ReadExReq MSHR misses
system.l2.ReadExReq_mshr_miss_latency::.cpu.data 371277144000                       # number of ReadExReq MSHR miss cycles
system.l2.ReadExReq_mshr_miss_latency::total 371277144000                       # number of ReadExReq MSHR miss cycles
system.l2.ReadExReq_mshr_miss_rate::.cpu.data     0.999994                       # mshr miss rate for ReadExReq accesses
system.l2.ReadExReq_mshr_miss_rate::total     0.999994                       # mshr miss rate for ReadExReq accesses
system.l2.ReadExReq_avg_mshr_miss_latency::.cpu.data 70544.465415                       # average ReadExReq mshr miss latency
system.l2.ReadExReq_avg_mshr_miss_latency::total 70544.465415                       # average ReadExReq mshr miss latency
system.l2.ReadCleanReq_hits::.cpu.inst            388                       # number of ReadCleanReq hits
system.l2.ReadCleanReq_hits::total                388                       # number of ReadCleanReq hits
system.l2.ReadCleanReq_misses::.cpu.inst          636                       # number of ReadCleanReq misses
system.l2.ReadCleanReq_misses::total              636                       # number of ReadCleanReq misses
system.l2.ReadCleanReq_miss_latency::.cpu.inst     50489500                       # number of ReadCleanReq miss cycles
system.l2.ReadCleanReq_miss_latency::total     50489500                       # number of ReadCleanReq miss cycles
system.l2.ReadCleanReq_accesses::.cpu.inst         1024                       # number of ReadCleanReq accesses(hits+misses)
system.l2.ReadCleanReq_accesses::total           1024                       # number of ReadCleanReq accesses(hits+misses)
system.l2.ReadCleanReq_miss_rate::.cpu.inst     0.621094                       # miss rate for ReadCleanReq accesses
system.l2.ReadCleanReq_miss_rate::total      0.621094                       # miss rate for ReadCleanReq accesses
system.l2.ReadCleanReq_avg_miss_latency::.cpu.inst 79386.006289                       # average ReadCleanReq miss latency
system.l2.ReadCleanReq_avg_miss_latency::total 79386.006289                       # average ReadCleanReq miss latency
system.l2.ReadCleanReq_mshr_hits::.cpu.inst            1                       # number of ReadCleanReq MSHR hits
system.l2.ReadCleanReq_mshr_hits::total             1                       # number of ReadCleanReq MSHR hits
system.l2.ReadCleanReq_mshr_misses::.cpu.inst          635                       # number of ReadCleanReq MSHR misses
system.l2.ReadCleanReq_mshr_misses::total          635                       # number of ReadCleanReq MSHR misses
system.l2.ReadCleanReq_mshr_miss_latency::.cpu.inst     44056000                       # number of ReadCleanReq MSHR miss cycles
system.l2.ReadCleanReq_mshr_miss_latency::total     44056000                       # number of ReadCleanReq MSHR miss cycles
system.l2.ReadCleanReq_mshr_miss_rate::.cpu.inst     0.620117                       # mshr miss rate for ReadCleanReq accesses
system.l2.ReadCleanReq_mshr_miss_rate::total     0.620117                       # mshr miss rate for ReadCleanReq accesses
system.l2.ReadCleanReq_avg_mshr_miss_latency::.cpu.inst 69379.527559                       # average ReadCleanReq mshr miss latency
system.l2.ReadCleanReq_avg_mshr_miss_latency::total 69379.527559                       # average ReadCleanReq mshr miss latency
system.l2.ReadSharedReq_hits::.cpu.data            72                       # number of ReadSharedReq hits
system.l2.ReadSharedReq_hits::total                72                       # number of ReadSharedReq hits
system.l2.ReadSharedReq_misses::.cpu.data          285                       # number of ReadSharedReq misses
system.l2.ReadSharedReq_misses::total             285                       # number of ReadSharedReq misses
system.l2.ReadSharedReq_miss_latency::.cpu.data     25139500                       # number of ReadSharedReq miss cycles
system.l2.ReadSharedReq_miss_latency::total     25139500                       # number of ReadSharedReq miss cycles
system.l2.ReadSharedReq_accesses::.cpu.data          357                       # number of ReadSharedReq accesses(hits+misses)
system.l2.ReadSharedReq_accesses::total           357                       # number of ReadSharedReq accesses(hits+misses)
system.l2.ReadSharedReq_miss_rate::.cpu.data     0.798319                       # miss rate for ReadSharedReq accesses
system.l2.ReadSharedReq_miss_rate::total     0.798319                       # miss rate for ReadSharedReq accesses
system.l2.ReadSharedReq_avg_miss_latency::.cpu.data 88208.771930                       # average ReadSharedReq miss latency
system.l2.ReadSharedReq_avg_miss_latency::total 88208.771930                       # average ReadSharedReq miss latency
system.l2.ReadSharedReq_mshr_hits::.cpu.data            5                       # number of ReadSharedReq MSHR hits
system.l2.ReadSharedReq_mshr_hits::total            5                       # number of ReadSharedReq MSHR hits
system.l2.ReadSharedReq_mshr_misses::.cpu.data          280                       # number of ReadSharedReq MSHR misses
system.l2.ReadSharedReq_mshr_misses::total          280                       # number of ReadSharedReq MSHR misses
system.l2.ReadSharedReq_mshr_miss_latency::.cpu.data     22000000                       # number of ReadSharedReq MSHR miss cycles
system.l2.ReadSharedReq_mshr_miss_latency::total     22000000                       # number of ReadSharedReq MSHR miss cycles
system.l2.ReadSharedReq_mshr_miss_rate::.cpu.data     0.784314                       # mshr miss rate for ReadSharedReq accesses
system.l2.ReadSharedReq_mshr_miss_rate::total     0.784314                       # mshr miss rate for ReadSharedReq accesses
system.l2.ReadSharedReq_avg_mshr_miss_latency::.cpu.data 78571.428571                       # average ReadSharedReq mshr miss latency
system.l2.ReadSharedReq_avg_mshr_miss_latency::total 78571.428571                       # average ReadSharedReq mshr miss latency
system.l2.tags.pwrStateResidencyTicks::UNDEFINED 513535518500                       # Cumulative time (in ticks) in various power states
system.l2.tags.tagsinuse                 32512.272233                       # Cycle average of tags in use
system.l2.tags.total_refs                    10527694                       # Total number of references to valid blocks.
system.l2.tags.sampled_refs                   5264005                       # Sample count of references to valid blocks.
system.l2.tags.avg_refs                      1.999940                       # Average number of references to valid blocks.
system.l2.tags.warmup_cycle                     77000                       # Cycle when the warmup percentage was hit.
system.l2.tags.occ_blocks::.writebacks       0.382010                       # Average occupied blocks per requestor
system.l2.tags.occ_blocks::.cpu.inst         5.382618                       # Average occupied blocks per requestor
system.l2.tags.occ_blocks::.cpu.data     32506.507604                       # Average occupied blocks per requestor
system.l2.tags.occ_percent::.writebacks      0.000012                       # Average percentage of cache occupancy
system.l2.tags.occ_percent::.cpu.inst        0.000164                       # Average percentage of cache occupancy
system.l2.tags.occ_percent::.cpu.data        0.992020                       # Average percentage of cache occupancy
system.l2.tags.occ_percent::total            0.992196                       # Average percentage of cache occupancy
system.l2.tags.occ_task_id_blocks::1024         32768                       # Occupied blocks per task id
system.l2.tags.age_task_id_blocks_1024::0          101                       # Occupied blocks per task id
system.l2.tags.age_task_id_blocks_1024::1          936                       # Occupied blocks per task id
system.l2.tags.age_task_id_blocks_1024::2         9264                       # Occupied blocks per task id
system.l2.tags.age_task_id_blocks_1024::3        22467                       # Occupied blocks per task id
system.l2.tags.occ_task_id_percent::1024            1                       # Percentage of cache occupancy per task id
system.l2.tags.tag_accesses                  89485605                       # Number of tag accesses
system.l2.tags.data_accesses                 89485605                       # Number of data accesses
system.cpu_voltage_domain.voltage                   1                       # Voltage in Volts
system.mem_ctrls.pwrStateResidencyTicks::UNDEFINED 513535518500                       # Cumulative time (in ticks) in various power states
system.mem_ctrls.bytes_read::.cpu.inst          40640                       # Number of bytes read from this memory
system.mem_ctrls.bytes_read::.cpu.data      336851392                       # Number of bytes read from this memory
system.mem_ctrls.bytes_read::total          336892032                       # Number of bytes read from this memory
system.mem_ctrls.bytes_inst_read::.cpu.inst        40640                       # Number of instructions bytes read from this memory
system.mem_ctrls.bytes_inst_read::total         40640                       # Number of instructions bytes read from this memory
system.mem_ctrls.bytes_written::.writebacks    334738176                       # Number of bytes written to this memory
system.mem_ctrls.bytes_written::total       334738176                       # Number of bytes written to this memory
system.mem_ctrls.num_reads::.cpu.inst             635                       # Number of read requests responded to by this memory
system.mem_ctrls.num_reads::.cpu.data         5263303                       # Number of read requests responded to by this memory
system.mem_ctrls.num_reads::total             5263938                       # Number of read requests responded to by this memory
system.mem_ctrls.num_writes::.writebacks      5230284                       # Number of write requests responded to by this memory
system.mem_ctrls.num_writes::total            5230284                       # Number of write requests responded to by this memory
system.mem_ctrls.bw_read::.cpu.inst             79138                       # Total read bandwidth from this memory (bytes/s)
system.mem_ctrls.bw_read::.cpu.data         655945655                       # Total read bandwidth from this memory (bytes/s)
system.mem_ctrls.bw_read::total             656024793                       # Total read bandwidth from this memory (bytes/s)
system.mem_ctrls.bw_inst_read::.cpu.inst        79138                       # Instruction read bandwidth from this memory (bytes/s)
system.mem_ctrls.bw_inst_read::total            79138                       # Instruction read bandwidth from this memory (bytes/s)
system.mem_ctrls.bw_write::.writebacks      651830621                       # Write bandwidth from this memory (bytes/s)
system.mem_ctrls.bw_write::total            651830621                       # Write bandwidth from this memory (bytes/s)
system.mem_ctrls.bw_total::.writebacks      651830621                       # Total bandwidth to/from this memory (bytes/s)
system.mem_ctrls.bw_total::.cpu.inst            79138                       # Total bandwidth to/from this memory (bytes/s)
system.mem_ctrls.bw_total::.cpu.data        655945655                       # Total bandwidth to/from this memory (bytes/s)
system.mem_ctrls.bw_total::total           1307855414                       # Total bandwidth to/from this memory (bytes/s)
system.mem_ctrls.avgPriority_.writebacks::samples   5230284.00                       # Average QoS priority value for accepted requests
system.mem_ctrls.avgPriority_.cpu.inst::samples       635.00                       # Average QoS priority value for accepted requests
system.mem_ctrls.avgPriority_.cpu.data::samples   5263303.00                       # Average QoS priority value for accepted requests
system.mem_ctrls.priorityMinLatency      0.000000018750                       # per QoS priority minimum request to response latency (s)
system.mem_ctrls.priorityMaxLatency      0.000732798500                       # per QoS priority maximum request to response latency (s)
system.mem_ctrls.numReadWriteTurnArounds       326820                       # Number of turnarounds from READ to WRITE
system.mem_ctrls.numWriteReadTurnArounds       326820                       # Number of turnarounds from WRITE to READ
system.mem_ctrls.numStayReadState            15544109                       # Number of times bus staying in READ state
system.mem_ctrls.numStayWriteState            4921229                       # Number of times bus staying in WRITE state
system.mem_ctrls.readReqs                     5263938                       # Number of read requests accepted
system.mem_ctrls.writeReqs                    5230284                       # Number of write requests accepted
system.mem_ctrls.readBursts                   5263938                       # Number of DRAM read bursts, including those serviced by the write queue
system.mem_ctrls.writeBursts                  5230284                       # Number of DRAM write bursts, including those merged in the write queue
system.mem_ctrls.servicedByWrQ                      0                       # Number of DRAM read bursts serviced by the write queue
system.mem_ctrls.mergedWrBursts                     0                       # Number of DRAM write bursts merged with an existing one
system.mem_ctrls.neitherReadNorWriteReqs            0                       # Number of requests that are neither read nor write
system.mem_ctrls.perBankRdBursts::0            329039                       # Per bank write bursts
system.mem_ctrls.perBankRdBursts::1            329056                       # Per bank write bursts
system.mem_ctrls.perBankRdBursts::2            329093                       # Per bank write bursts
system.mem_ctrls.perBankRdBursts::3            329070                       # Per bank write bursts
system.mem_ctrls.perBankRdBursts::4            329023                       # Per bank write bursts
system.mem_ctrls.perBankRdBursts::5            329065                       # Per bank write bursts
system.mem_ctrls.perBankRdBursts::6            329083                       # Per bank write bursts
system.mem_ctrls.perBankRdBursts::7            328936                       # Per bank write bursts
system.mem_ctrls.perBankRdBursts::8            328904                       # Per bank write bursts
system.mem_ctrls.perBankRdBursts::9            328869                       # Per bank write bursts
system.mem_ctrls.perBankRdBursts::10           328856                       # Per bank write bursts
system.mem_ctrls.perBankRdBursts::11           329037                       # Per bank write bursts
system.mem_ctrls.perBankRdBursts::12           329024                       # Per bank write bursts
system.mem_ctrls.perBankRdBursts::13           329022                       # Per bank write bursts
system.mem_ctrls.perBankRdBursts::14           328985                       # Per bank write bursts
system.mem_ctrls.perBankRdBursts::15           328876                       # Per bank write bursts
system.mem_ctrls.perBankWrBursts::0            326857                       # Per bank write bursts
system.mem_ctrls.perBankWrBursts::1            326914                       # Per bank write bursts
system.mem_ctrls.perBankWrBursts::2            327004                       # Per bank write bursts
system.mem_ctrls.perBankWrBursts::3            326992                       # Per bank write bursts
system.mem_ctrls.perBankWrBursts::4            326969                       # Per bank write bursts
system.mem_ctrls.perBankWrBursts::5            326973                       # Per bank write bursts
system.mem_ctrls.perBankWrBursts::6            326986                       # Per bank write bursts
system.mem_ctrls.perBankWrBursts::7            326871                       # Per bank write bursts
system.mem_ctrls.perBankWrBursts::8            326784                       # Per bank write bursts
system.mem_ctrls.perBankWrBursts::9            326784                       # Per bank write bursts
system.mem_ctrls.perBankWrBursts::10           326714                       # Per bank write bursts
system.mem_ctrls.perBankWrBursts::11           326929                       # Per bank write bursts
system.mem_ctrls.perBankWrBursts::12           326930                       # Per bank write bursts
system.mem_ctrls.perBankWrBursts::13           326910                       # Per bank write bursts
system.mem_ctrls.perBankWrBursts::14           326849                       # Per bank write bursts
system.mem_ctrls.perBankWrBursts::15           326799                       # Per bank write bursts
system.mem_ctrls.avgRdQLen                       1.01                       # Average read queue length when enqueuing
system.mem_ctrls.avgWrQLen                      25.86                       # Average write queue length when enqueuing
system.mem_ctrls.totQLat                  58092161500                       # Total ticks spent queuing
system.mem_ctrls.totBusLat                26319690000                       # Total ticks spent in databus transfers
system.mem_ctrls.totMemAccLat            156790999000                       # Total ticks spent from burst creation until serviced by the DRAM
system.mem_ctrls.avgQLat                     11035.87                       # Average queueing delay per DRAM burst
system.mem_ctrls.avgBusLat                    5000.00                       # Average bus latency per DRAM burst
system.mem_ctrls.avgMemAccLat                29785.87                       # Average memory access latency per DRAM burst
system.mem_ctrls.numRdRetry                         0                       # Number of times read queue was full causing retry
system.mem_ctrls.numWrRetry                         0                       # Number of times write queue was full causing retry
system.mem_ctrls.readRowHits                  4839162                       # Number of row buffer hits during reads
system.mem_ctrls.writeRowHits                 4854834                       # Number of row buffer hits during writes
system.mem_ctrls.readRowHitRate                 91.93                       # Row buffer hit rate for reads
system.mem_ctrls.writeRowHitRate                92.82                       # Row buffer hit rate for writes
system.mem_ctrls.readPktSize::0                     0                       # Read request sizes (log2)
system.mem_ctrls.readPktSize::1                     0                       # Read request sizes (log2)
system.mem_ctrls.readPktSize::2                     0                       # Read request sizes (log2)
system.mem_ctrls.readPktSize::3                     0                       # Read request sizes (log2)
system.mem_ctrls.readPktSize::4                     0                       # Read request sizes (log2)
system.mem_ctrls.readPktSize::5                     0                       # Read request sizes (log2)
system.mem_ctrls.readPktSize::6               5263938                       # Read request sizes (log2)
system.mem_ctrls.writePktSize::0                    0                       # Write request sizes (log2)
system.mem_ctrls.writePktSize::1                    0                       # Write request sizes (log2)
system.mem_ctrls.writePktSize::2                    0                       # Write request sizes (log2)
system.mem_ctrls.writePktSize::3                    0                       # Write request sizes (log2)
system.mem_ctrls.writePktSize::4                    0                       # Write request sizes (log2)
system.mem_ctrls.writePktSize::5                    0                       # Write request sizes (log2)
system.mem_ctrls.writePktSize::6              5230284                       # Write request sizes (log2)
system.mem_ctrls.rdQLenPdf::0                 5262941                       # What read queue length does an incoming req see
system.mem_ctrls.rdQLenPdf::1                     966                       # What read queue length does an incoming req see
system.mem_ctrls.rdQLenPdf::2                      28                       # What read queue length does an incoming req see
system.mem_ctrls.rdQLenPdf::3                       2                       # What read queue length does an incoming req see
system.mem_ctrls.rdQLenPdf::4                       1                       # What read queue length does an incoming req see
system.mem_ctrls.rdQLenPdf::5                       0                       # What read queue length does an incoming req see
system.mem_ctrls.rdQLenPdf::6                       0                       # What read queue length does an incoming req see
system.mem_ctrls.rdQLenPdf::7                       0                       # What read queue length does an incoming req see
system.mem_ctrls.rdQLenPdf::8                       0                       # What read queue length does an incoming req see
system.mem_ctrls.rdQLenPdf::9                       0                       # What read queue length does an incoming req see
system.mem_ctrls.rdQLenPdf::10                      0                       # What read queue length does an incoming req see
system.mem_ctrls.rdQLenPdf::11                      0                       # What read queue length does an incoming req see
system.mem_ctrls.rdQLenPdf::12                      0                       # What read queue length does an incoming req see
system.mem_ctrls.rdQLenPdf::13                      0                       # What read queue length does an incoming req see
system.mem_ctrls.rdQLenPdf::14                      0                       # What read queue length does an incoming req see
system.mem_ctrls.rdQLenPdf::15                      0                       # What read queue length does an incoming req see
system.mem_ctrls.rdQLenPdf::16                      0                       # What read queue length does an incoming req see
system.mem_ctrls.rdQLenPdf::17                      0                       # What read queue length does an incoming req see
system.mem_ctrls.rdQLenPdf::18                      0                       # What read queue length does an incoming req see
system.mem_ctrls.rdQLenPdf::19                      0                       # What read queue length does an incoming req see
system.mem_ctrls.rdQLenPdf::20                      0                       # What read queue length does an incoming req see
system.mem_ctrls.rdQLenPdf::21                      0                       # What read queue length does an incoming req see
system.mem_ctrls.rdQLenPdf::22                      0                       # What read queue length does an incoming req see
system.mem_ctrls.rdQLenPdf::23                      0                       # What read queue length does an incoming req see
system.mem_ctrls.rdQLenPdf::24                      0                       # What read queue length does an incoming req see
system.mem_ctrls.rdQLenPdf::25                      0                       # What read queue length does an incoming req see
system.mem_ctrls.rdQLenPdf::26                      0                       # What read queue length does an incoming req see
system.mem_ctrls.rdQLenPdf::27                      0                       # What read queue length does an incoming req see
system.mem_ctrls.rdQLenPdf::28                      0                       # What read queue length does an incoming req see
system.mem_ctrls.rdQLenPdf::29                      0                       # What read queue length does an incoming req see
system.mem_ctrls.rdQLenPdf::30                      0                       # What read queue length does an incoming req see
system.mem_ctrls.rdQLenPdf::31                      0                       # What read queue length does an incoming req see
system.mem_ctrls.wrQLenPdf::0                       1                       # What write queue length does an incoming req see
system.mem_ctrls.wrQLenPdf::1                       1                       # What write queue length does an incoming req see
system.mem_ctrls.wrQLenPdf::2                       1                       # What write queue length does an incoming req see
system.mem_ctrls.wrQLenPdf::3                       1                       # What write queue length does an incoming req see
system.mem_ctrls.wrQLenPdf::4                       1                       # What write queue length does an incoming req see
system.mem_ctrls.wrQLenPdf::5                       1                       # What write queue length does an incoming req see
system.mem_ctrls.wrQLenPdf::6                       1                       # What write queue length does an incoming req see
system.mem_ctrls.wrQLenPdf::7                       1                       # What write queue length does an incoming req see
system.mem_ctrls.wrQLenPdf::8                       1                       # What write queue length does an incoming req see
system.mem_ctrls.wrQLenPdf::9                       1                       # What write queue length does an incoming req see
system.mem_ctrls.wrQLenPdf::10                      1                       # What write queue length does an incoming req see
system.mem_ctrls.wrQLenPdf::11                      1                       # What write queue length does an incoming req see
system.mem_ctrls.wrQLenPdf::12                      1                       # What write queue length does an incoming req see
system.mem_ctrls.wrQLenPdf::13                      1                       # What write queue length does an incoming req see
system.mem_ctrls.wrQLenPdf::14                      1                       # What write queue length does an incoming req see
system.mem_ctrls.wrQLenPdf::15                    380                       # What write queue length does an incoming req see
system.mem_ctrls.wrQLenPdf::16                    383                       # What write queue length does an incoming req see
system.mem_ctrls.wrQLenPdf::17                 323282                       # What write queue length does an incoming req see
system.mem_ctrls.wrQLenPdf::18                 326819                       # What write queue length does an incoming req see
system.mem_ctrls.wrQLenPdf::19                 326828                       # What write queue length does an incoming req see
system.mem_ctrls.wrQLenPdf::20                 326821                       # What write queue length does an incoming req see
system.mem_ctrls.wrQLenPdf::21                 326822                       # What write queue length does an incoming req see
system.mem_ctrls.wrQLenPdf::22                 326822                       # What write queue length does an incoming req see
system.mem_ctrls.wrQLenPdf::23                 326844                       # What write queue length does an incoming req see
system.mem_ctrls.wrQLenPdf::24                 326821                       # What write queue length does an incoming req see
system.mem_ctrls.wrQLenPdf::25                 330694                       # What write queue length does an incoming req see
system.mem_ctrls.wrQLenPdf::26                 326822                       # What write queue length does an incoming req see
system.mem_ctrls.wrQLenPdf::27                 326821                       # What write queue length does an incoming req see
system.mem_ctrls.wrQLenPdf::28                 326823                       # What write queue length does an incoming req see
system.mem_ctrls.wrQLenPdf::29                 326820                       # What write queue length does an incoming req see
system.mem_ctrls.wrQLenPdf::30                 326822                       # What write queue length does an incoming req see
system.mem_ctrls.wrQLenPdf::31                 326825                       # What write queue length does an incoming req see
system.mem_ctrls.wrQLenPdf::32                 326820                       # What write queue length does an incoming req see
system.mem_ctrls.wrQLenPdf::33                      0                       # What write queue length does an incoming req see
system.mem_ctrls.wrQLenPdf::34                      0                       # What write queue length does an incoming req see
system.mem_ctrls.wrQLenPdf::35                      0                       # What write queue length does an incoming req see
system.mem_ctrls.wrQLenPdf::36                      0                       # What write queue length does an incoming req see
system.mem_ctrls.wrQLenPdf::37                      0                       # What write queue length does an incoming req see
system.mem_ctrls.wrQLenPdf::38                      0                       # What write queue length does an incoming req see
system.mem_ctrls.wrQLenPdf::39                      0                       # What write queue length does an incoming req see
system.mem_ctrls.wrQLenPdf::40                      0                       # What write queue length does an incoming req see
system.mem_ctrls.wrQLenPdf::41                      0                       # What write queue length does an incoming req see
system.mem_ctrls.wrQLenPdf::42                      0                       # What write queue length does an incoming req see
system.mem_ctrls.wrQLenPdf::43                      0                       # What write queue length does an incoming req see
system.mem_ctrls.wrQLenPdf::44                      0                       # What write queue length does an incoming req see
system.mem_ctrls.wrQLenPdf::45                      0                       # What write queue length does an incoming req see
system.mem_ctrls.wrQLenPdf::46                      0                       # What write queue length does an incoming req see
system.mem_ctrls.wrQLenPdf::47                      0                       # What write queue length does an incoming req see
system.mem_ctrls.wrQLenPdf::48                      0                       # What write queue length does an incoming req see
system.mem_ctrls.wrQLenPdf::49                      0                       # What write queue length does an incoming req see
system.mem_ctrls.wrQLenPdf::50                      0                       # What write queue length does an incoming req see
system.mem_ctrls.wrQLenPdf::51                      0                       # What write queue length does an incoming req see
system.mem_ctrls.wrQLenPdf::52                      0                       # What write queue length does an incoming req see
system.mem_ctrls.wrQLenPdf::53                      0                       # What write queue length does an incoming req see
system.mem_ctrls.wrQLenPdf::54                      0                       # What write queue length does an incoming req see
system.mem_ctrls.wrQLenPdf::55                      0                       # What write queue length does an incoming req see
system.mem_ctrls.wrQLenPdf::56                      0                       # What write queue length does an incoming req see
system.mem_ctrls.wrQLenPdf::57                      0                       # What write queue length does an incoming req see
system.mem_ctrls.wrQLenPdf::58                      0                       # What write queue length does an incoming req see
system.mem_ctrls.wrQLenPdf::59                      0                       # What write queue length does an incoming req see
system.mem_ctrls.wrQLenPdf::60                      0                       # What write queue length does an incoming req see
system.mem_ctrls.wrQLenPdf::61                      0                       # What write queue length does an incoming req see
system.mem_ctrls.wrQLenPdf::62                      0                       # What write queue length does an incoming req see
system.mem_ctrls.wrQLenPdf::63                      0                       # What write queue length does an incoming req see
system.mem_ctrls.bytesPerActivate::samples       800206                       # Bytes accessed per row activation
system.mem_ctrls.bytesPerActivate::mean    839.319955                       # Bytes accessed per row activation
system.mem_ctrls.bytesPerActivate::gmean   746.333297                       # Bytes accessed per row activation
system.mem_ctrls.bytesPerActivate::stdev   290.491937                       # Bytes accessed per row activation
system.mem_ctrls.bytesPerActivate::0-127        16392      2.05%      2.05% # Bytes accessed per row activation
system.mem_ctrls.bytesPerActivate::128-255        26878      3.36%      5.41% # Bytes accessed per row activation
system.mem_ctrls.bytesPerActivate::256-383        40869      5.11%     10.51% # Bytes accessed per row activation
system.mem_ctrls.bytesPerActivate::384-511        43293      5.41%     15.92% # Bytes accessed per row activation
system.mem_ctrls.bytesPerActivate::512-639        63257      7.91%     23.83% # Bytes accessed per row activation
system.mem_ctrls.bytesPerActivate::640-767        35785      4.47%     28.30% # Bytes accessed per row activation
system.mem_ctrls.bytesPerActivate::768-895        29447      3.68%     31.98% # Bytes accessed per row activation
system.mem_ctrls.bytesPerActivate::896-1023        22685      2.83%     34.82% # Bytes accessed per row activation
system.mem_ctrls.bytesPerActivate::1024-1151       521600     65.18%    100.00% # Bytes accessed per row activation
system.mem_ctrls.bytesPerActivate::total       800206                       # Bytes accessed per row activation
system.mem_ctrls.rdPerTurnAround::samples       326820                       # Reads before turning the bus around for writes
system.mem_ctrls.rdPerTurnAround::mean      16.106530                       # Reads before turning the bus around for writes
system.mem_ctrls.rdPerTurnAround::gmean     16.006567                       # Reads before turning the bus around for writes
system.mem_ctrls.rdPerTurnAround::stdev     49.726687                       # Reads before turning the bus around for writes
system.mem_ctrls.rdPerTurnAround::0-1023       326818    100.00%    100.00% # Reads before turning the bus around for writes
system.mem_ctrls.rdPerTurnAround::1024-2047            1      0.00%    100.00% # Reads before turning the bus around for writes
system.mem_ctrls.rdPerTurnAround::27648-28671            1      0.00%    100.00% # Reads before turning the bus around for writes
system.mem_ctrls.rdPerTurnAround::total        326820                       # Reads before turning the bus around for writes
system.mem_ctrls.wrPerTurnAround::samples       326820                       # Writes before turning the bus around for reads
system.mem_ctrls.wrPerTurnAround::mean      16.003503                       # Writes before turning the bus around for reads
[...]
system.cpu.icache.ReadReq_miss_rate::.cpu.inst     0.000032                       # miss rate for ReadReq accesses
system.cpu.icache.ReadReq_miss_rate::total     0.000032                       # miss rate for ReadReq accesses
system.cpu.icache.ReadReq_avg_miss_latency::.cpu.inst 55872.070312                       # average ReadReq miss latency
system.cpu.icache.ReadReq_avg_miss_latency::total 55872.070312                       # average ReadReq miss latency
system.cpu.icache.ReadReq_mshr_misses::.cpu.inst         1024                       # number of ReadReq MSHR misses
system.cpu.icache.ReadReq_mshr_misses::total         1024                       # number of ReadReq MSHR misses
system.cpu.icache.ReadReq_mshr_miss_latency::.cpu.inst     56189000                       # number of ReadReq MSHR miss cycles
system.cpu.icache.ReadReq_mshr_miss_latency::total     56189000                       # number of ReadReq MSHR miss cycles
system.cpu.icache.ReadReq_mshr_miss_rate::.cpu.inst     0.000032                       # mshr miss rate for ReadReq accesses
system.cpu.icache.ReadReq_mshr_miss_rate::total     0.000032                       # mshr miss rate for ReadReq accesses
system.cpu.icache.ReadReq_avg_mshr_miss_latency::.cpu.inst 54872.070312                       # average ReadReq mshr miss latency
system.cpu.icache.ReadReq_avg_mshr_miss_latency::total 54872.070312                       # average ReadReq mshr miss latency
system.cpu.icache.tags.pwrStateResidencyTicks::UNDEFINED 513535518500                       # Cumulative time (in ticks) in various power states
system.cpu.icache.tags.tagsinuse            63.999511                       # Cycle average of tags in use
system.cpu.icache.tags.total_refs            31870104                       # Total number of references to valid blocks.
system.cpu.icache.tags.sampled_refs              1024                       # Sample count of references to valid blocks.
system.cpu.icache.tags.avg_refs          31123.148438                       # Average number of references to valid blocks.
system.cpu.icache.tags.warmup_cycle             87500                       # Cycle when the warmup percentage was hit.
system.cpu.icache.tags.occ_blocks::.cpu.inst    63.999511                       # Average occupied blocks per requestor
system.cpu.icache.tags.occ_percent::.cpu.inst     0.999992                       # Average percentage of cache occupancy
system.cpu.icache.tags.occ_percent::total     0.999992                       # Average percentage of cache occupancy
system.cpu.icache.tags.occ_task_id_blocks::1024           64                       # Occupied blocks per task id
system.cpu.icache.tags.age_task_id_blocks_1024::4           64                       # Occupied blocks per task id
system.cpu.icache.tags.occ_task_id_percent::1024            1                       # Percentage of cache occupancy per task id
system.cpu.icache.tags.tag_accesses          63741232                       # Number of tag accesses
system.cpu.icache.tags.data_accesses         63741232                       # Number of data accesses
system.cpu.dtb.walker.pwrStateResidencyTicks::UNDEFINED 513535518500                       # Cumulative time (in ticks) in various power states
system.cpu.dtb.stage2_mmu.stage2_tlb.walker.pwrStateResidencyTicks::UNDEFINED 513535518500                       # Cumulative time (in ticks) in various power states
system.cpu.dcache.pwrStateResidencyTicks::UNDEFINED 513535518500                       # Cumulative time (in ticks) in various power states
system.cpu.dcache.demand_hits::.cpu.data     75856792                       # number of demand (read+write) hits
system.cpu.dcache.demand_hits::total         75856792                       # number of demand (read+write) hits
system.cpu.dcache.overall_hits::.cpu.data     75856825                       # number of overall hits
system.cpu.dcache.overall_hits::total        75856825                       # number of overall hits
system.cpu.dcache.demand_misses::.cpu.data     10523823                       # number of demand (read+write) misses
system.cpu.dcache.demand_misses::total       10523823                       # number of demand (read+write) misses
system.cpu.dcache.overall_misses::.cpu.data     10523861                       # number of overall misses
system.cpu.dcache.overall_misses::total      10523861                       # number of overall misses
system.cpu.dcache.demand_miss_latency::.cpu.data 876558148500                       # number of demand (read+write) miss cycles
system.cpu.dcache.demand_miss_latency::total 876558148500                       # number of demand (read+write) miss cycles
system.cpu.dcache.overall_miss_latency::.cpu.data 876558148500                       # number of overall miss cycles
system.cpu.dcache.overall_miss_latency::total 876558148500                       # number of overall miss cycles
system.cpu.dcache.demand_accesses::.cpu.data     86380615                       # number of demand (read+write) accesses
system.cpu.dcache.demand_accesses::total     86380615                       # number of demand (read+write) accesses
system.cpu.dcache.overall_accesses::.cpu.data     86380686                       # number of overall (read+write) accesses
system.cpu.dcache.overall_accesses::total     86380686                       # number of overall (read+write) accesses
system.cpu.dcache.demand_miss_rate::.cpu.data     0.121831                       # miss rate for demand accesses
system.cpu.dcache.demand_miss_rate::total     0.121831                       # miss rate for demand accesses
system.cpu.dcache.overall_miss_rate::.cpu.data     0.121831                       # miss rate for overall accesses
system.cpu.dcache.overall_miss_rate::total     0.121831                       # miss rate for overall accesses
system.cpu.dcache.demand_avg_miss_latency::.cpu.data 83292.749080                       # average overall miss latency
system.cpu.dcache.demand_avg_miss_latency::total 83292.749080                       # average overall miss latency
system.cpu.dcache.overall_avg_miss_latency::.cpu.data 83292.448323                       # average overall miss latency
system.cpu.dcache.overall_avg_miss_latency::total 83292.448323                       # average overall miss latency
system.cpu.dcache.blocked_cycles::no_mshrs          330                       # number of cycles access was blocked
system.cpu.dcache.blocked_cycles::no_targets            0                       # number of cycles access was blocked
system.cpu.dcache.blocked::no_mshrs                 4                       # number of cycles access was blocked
system.cpu.dcache.blocked::no_targets               0                       # number of cycles access was blocked
system.cpu.dcache.avg_blocked_cycles::no_mshrs    82.500000                       # average number of cycles each access was blocked
system.cpu.dcache.avg_blocked_cycles::no_targets          nan                       # average number of cycles each access was blocked
system.cpu.dcache.writebacks::.writebacks      5262070                       # number of writebacks
system.cpu.dcache.writebacks::total           5262070                       # number of writebacks
system.cpu.dcache.demand_mshr_hits::.cpu.data      5260446                       # number of demand (read+write) MSHR hits
system.cpu.dcache.demand_mshr_hits::total      5260446                       # number of demand (read+write) MSHR hits
system.cpu.dcache.overall_mshr_hits::.cpu.data      5260446                       # number of overall MSHR hits
system.cpu.dcache.overall_mshr_hits::total      5260446                       # number of overall MSHR hits
system.cpu.dcache.demand_mshr_misses::.cpu.data      5263377                       # number of demand (read+write) MSHR misses
system.cpu.dcache.demand_mshr_misses::total      5263377                       # number of demand (read+write) MSHR misses
system.cpu.dcache.overall_mshr_misses::.cpu.data      5263410                       # number of overall MSHR misses
system.cpu.dcache.overall_mshr_misses::total      5263410                       # number of overall MSHR misses
system.cpu.dcache.demand_mshr_miss_latency::.cpu.data 431825798000                       # number of demand (read+write) MSHR miss cycles
system.cpu.dcache.demand_mshr_miss_latency::total 431825798000                       # number of demand (read+write) MSHR miss cycles
system.cpu.dcache.overall_mshr_miss_latency::.cpu.data 431828727000                       # number of overall MSHR miss cycles
system.cpu.dcache.overall_mshr_miss_latency::total 431828727000                       # number of overall MSHR miss cycles
system.cpu.dcache.demand_mshr_miss_rate::.cpu.data     0.060932                       # mshr miss rate for demand accesses
system.cpu.dcache.demand_mshr_miss_rate::total     0.060932                       # mshr miss rate for demand accesses
system.cpu.dcache.overall_mshr_miss_rate::.cpu.data     0.060933                       # mshr miss rate for overall accesses
system.cpu.dcache.overall_mshr_miss_rate::total     0.060933                       # mshr miss rate for overall accesses
system.cpu.dcache.demand_avg_mshr_miss_latency::.cpu.data 82043.486150                       # average overall mshr miss latency
system.cpu.dcache.demand_avg_mshr_miss_latency::total 82043.486150                       # average overall mshr miss latency
system.cpu.dcache.overall_avg_mshr_miss_latency::.cpu.data 82043.528245                       # average overall mshr miss latency
system.cpu.dcache.overall_avg_mshr_miss_latency::total 82043.528245                       # average overall mshr miss latency
system.cpu.dcache.replacements                5262386                       # number of replacements
system.cpu.dcache.ReadReq_hits::.cpu.data      2043708                       # number of ReadReq hits
system.cpu.dcache.ReadReq_hits::total         2043708                       # number of ReadReq hits
system.cpu.dcache.ReadReq_misses::.cpu.data          341                       # number of ReadReq misses
system.cpu.dcache.ReadReq_misses::total           341                       # number of ReadReq misses
system.cpu.dcache.ReadReq_miss_latency::.cpu.data     25061000                       # number of ReadReq miss cycles
system.cpu.dcache.ReadReq_miss_latency::total     25061000                       # number of ReadReq miss cycles
system.cpu.dcache.ReadReq_accesses::.cpu.data      2044049                       # number of ReadReq accesses(hits+misses)
system.cpu.dcache.ReadReq_accesses::total      2044049                       # number of ReadReq accesses(hits+misses)
system.cpu.dcache.ReadReq_miss_rate::.cpu.data     0.000167                       # miss rate for ReadReq accesses
system.cpu.dcache.ReadReq_miss_rate::total     0.000167                       # miss rate for ReadReq accesses
system.cpu.dcache.ReadReq_avg_miss_latency::.cpu.data 73492.668622                       # average ReadReq miss latency
system.cpu.dcache.ReadReq_avg_miss_latency::total 73492.668622                       # average ReadReq miss latency
system.cpu.dcache.ReadReq_mshr_hits::.cpu.data           17                       # number of ReadReq MSHR hits
system.cpu.dcache.ReadReq_mshr_hits::total           17                       # number of ReadReq MSHR hits
system.cpu.dcache.ReadReq_mshr_misses::.cpu.data          324                       # number of ReadReq MSHR misses
system.cpu.dcache.ReadReq_mshr_misses::total          324                       # number of ReadReq MSHR misses
system.cpu.dcache.ReadReq_mshr_miss_latency::.cpu.data     23526000                       # number of ReadReq MSHR miss cycles
system.cpu.dcache.ReadReq_mshr_miss_latency::total     23526000                       # number of ReadReq MSHR miss cycles
system.cpu.dcache.ReadReq_mshr_miss_rate::.cpu.data     0.000159                       # mshr miss rate for ReadReq accesses
system.cpu.dcache.ReadReq_mshr_miss_rate::total     0.000159                       # mshr miss rate for ReadReq accesses
system.cpu.dcache.ReadReq_avg_mshr_miss_latency::.cpu.data 72611.111111                       # average ReadReq mshr miss latency
system.cpu.dcache.ReadReq_avg_mshr_miss_latency::total 72611.111111                       # average ReadReq mshr miss latency
system.cpu.dcache.WriteReq_hits::.cpu.data     73813084                       # number of WriteReq hits
system.cpu.dcache.WriteReq_hits::total       73813084                       # number of WriteReq hits
system.cpu.dcache.WriteReq_misses::.cpu.data     10523482                       # number of WriteReq misses
system.cpu.dcache.WriteReq_misses::total     10523482                       # number of WriteReq misses
system.cpu.dcache.WriteReq_miss_latency::.cpu.data 876533087500                       # number of WriteReq miss cycles
system.cpu.dcache.WriteReq_miss_latency::total 876533087500                       # number of WriteReq miss cycles
system.cpu.dcache.WriteReq_accesses::.cpu.data     84336566                       # number of WriteReq accesses(hits+misses)
system.cpu.dcache.WriteReq_accesses::total     84336566                       # number of WriteReq accesses(hits+misses)
system.cpu.dcache.WriteReq_miss_rate::.cpu.data     0.124780                       # miss rate for WriteReq accesses
system.cpu.dcache.WriteReq_miss_rate::total     0.124780                       # miss rate for WriteReq accesses
system.cpu.dcache.WriteReq_avg_miss_latency::.cpu.data 83293.066639                       # average WriteReq miss latency
system.cpu.dcache.WriteReq_avg_miss_latency::total 83293.066639                       # average WriteReq miss latency
system.cpu.dcache.WriteReq_mshr_hits::.cpu.data      5260429                       # number of WriteReq MSHR hits
system.cpu.dcache.WriteReq_mshr_hits::total      5260429                       # number of WriteReq MSHR hits
system.cpu.dcache.WriteReq_mshr_misses::.cpu.data      5263053                       # number of WriteReq MSHR misses
system.cpu.dcache.WriteReq_mshr_misses::total      5263053                       # number of WriteReq MSHR misses
system.cpu.dcache.WriteReq_mshr_miss_latency::.cpu.data 431802272000                       # number of WriteReq MSHR miss cycles
system.cpu.dcache.WriteReq_mshr_miss_latency::total 431802272000                       # number of WriteReq MSHR miss cycles
system.cpu.dcache.WriteReq_mshr_miss_rate::.cpu.data     0.062405                       # mshr miss rate for WriteReq accesses
system.cpu.dcache.WriteReq_mshr_miss_rate::total     0.062405                       # mshr miss rate for WriteReq accesses
system.cpu.dcache.WriteReq_avg_mshr_miss_latency::.cpu.data 82044.066818                       # average WriteReq mshr miss latency
system.cpu.dcache.WriteReq_avg_mshr_miss_latency::total 82044.066818                       # average WriteReq mshr miss latency
system.cpu.dcache.SoftPFReq_hits::.cpu.data           33                       # number of SoftPFReq hits
system.cpu.dcache.SoftPFReq_hits::total            33                       # number of SoftPFReq hits
system.cpu.dcache.SoftPFReq_misses::.cpu.data           38                       # number of SoftPFReq misses
system.cpu.dcache.SoftPFReq_misses::total           38                       # number of SoftPFReq misses
system.cpu.dcache.SoftPFReq_accesses::.cpu.data           71                       # number of SoftPFReq accesses(hits+misses)
system.cpu.dcache.SoftPFReq_accesses::total           71                       # number of SoftPFReq accesses(hits+misses)
system.cpu.dcache.SoftPFReq_miss_rate::.cpu.data     0.535211                       # miss rate for SoftPFReq accesses
system.cpu.dcache.SoftPFReq_miss_rate::total     0.535211                       # miss rate for SoftPFReq accesses
system.cpu.dcache.SoftPFReq_mshr_misses::.cpu.data           33                       # number of SoftPFReq MSHR misses
system.cpu.dcache.SoftPFReq_mshr_misses::total           33                       # number of SoftPFReq MSHR misses
system.cpu.dcache.SoftPFReq_mshr_miss_latency::.cpu.data      2929000                       # number of SoftPFReq MSHR miss cycles
system.cpu.dcache.SoftPFReq_mshr_miss_latency::total      2929000                       # number of SoftPFReq MSHR miss cycles
system.cpu.dcache.SoftPFReq_mshr_miss_rate::.cpu.data     0.464789                       # mshr miss rate for SoftPFReq accesses
system.cpu.dcache.SoftPFReq_mshr_miss_rate::total     0.464789                       # mshr miss rate for SoftPFReq accesses
system.cpu.dcache.SoftPFReq_avg_mshr_miss_latency::.cpu.data 88757.575758                       # average SoftPFReq mshr miss latency
system.cpu.dcache.SoftPFReq_avg_mshr_miss_latency::total 88757.575758                       # average SoftPFReq mshr miss latency
system.cpu.dcache.LoadLockedReq_hits::.cpu.data           34                       # number of LoadLockedReq hits
system.cpu.dcache.LoadLockedReq_hits::total           34                       # number of LoadLockedReq hits
system.cpu.dcache.LoadLockedReq_accesses::.cpu.data           34                       # number of LoadLockedReq accesses(hits+misses)
system.cpu.dcache.LoadLockedReq_accesses::total           34                       # number of LoadLockedReq accesses(hits+misses)
system.cpu.dcache.StoreCondReq_hits::.cpu.data           34                       # number of StoreCondReq hits
system.cpu.dcache.StoreCondReq_hits::total           34                       # number of StoreCondReq hits
system.cpu.dcache.StoreCondReq_accesses::.cpu.data           34                       # number of StoreCondReq accesses(hits+misses)
system.cpu.dcache.StoreCondReq_accesses::total           34                       # number of StoreCondReq accesses(hits+misses)
system.cpu.dcache.tags.pwrStateResidencyTicks::UNDEFINED 513535518500                       # Cumulative time (in ticks) in various power states
system.cpu.dcache.tags.tagsinuse          1023.582390                       # Cycle average of tags in use
system.cpu.dcache.tags.total_refs            81120303                       # Total number of references to valid blocks.
system.cpu.dcache.tags.sampled_refs           5263410                       # Sample count of references to valid blocks.
system.cpu.dcache.tags.avg_refs             15.412119                       # Average number of references to valid blocks.
system.cpu.dcache.tags.warmup_cycle            176500                       # Cycle when the warmup percentage was hit.
system.cpu.dcache.tags.occ_blocks::.cpu.data  1023.582390                       # Average occupied blocks per requestor
system.cpu.dcache.tags.occ_percent::.cpu.data     0.999592                       # Average percentage of cache occupancy
system.cpu.dcache.tags.occ_percent::total     0.999592                       # Average percentage of cache occupancy
system.cpu.dcache.tags.occ_task_id_blocks::1024         1024                       # Occupied blocks per task id
system.cpu.dcache.tags.age_task_id_blocks_1024::0          101                       # Occupied blocks per task id
system.cpu.dcache.tags.age_task_id_blocks_1024::1          923                       # Occupied blocks per task id
system.cpu.dcache.tags.occ_task_id_percent::1024            1                       # Percentage of cache occupancy per task id
system.cpu.dcache.tags.tag_accesses         178024918                       # Number of tag accesses
system.cpu.dcache.tags.data_accesses        178024918                       # Number of data accesses
system.cpu.itb.walker.pwrStateResidencyTicks::UNDEFINED 513535518500                       # Cumulative time (in ticks) in various power states
system.cpu.itb.stage2_mmu.stage2_tlb.walker.pwrStateResidencyTicks::UNDEFINED 513535518500                       # Cumulative time (in ticks) in various power states

---------- End Simulation Statistics   ----------
