
---------- Begin Simulation Statistics ----------
final_tick                               280387436500                       # Number of ticks from beginning of simulation (restored from checkpoints and never reset)
host_inst_rate                                 148854                       # Simulator instruction rate (inst/s)
host_mem_usage                                 703396                       # Number of bytes of host memory used
host_op_rate                                   148861                       # Simulator op (including micro ops) rate (op/s)
host_seconds                                   671.80                       # Real time elapsed on the host
host_tick_rate                              417368213                       # Simulator tick rate (ticks/s)
sim_freq                                 1000000000000                       # Frequency of simulated ticks
sim_insts                                   100000000                       # Number of instructions simulated
sim_ops                                     100004420                       # Number of ops (including micro ops) simulated
sim_seconds                                  0.280387                       # Number of seconds simulated
sim_ticks                                280387436500                       # Number of ticks simulated
system.cpu.branchPred.BTBCorrect                    0                       # Number of correct BTB predictions (this stat may not work properly.
system.cpu.branchPred.BTBHitPct             99.541391                       # BTB Hit Percentage
system.cpu.branchPred.BTBHits                  597106                       # Number of BTB hits
system.cpu.branchPred.BTBLookups               599857                       # Number of BTB lookups
system.cpu.branchPred.RASInCorrect                  7                       # Number of incorrect RAS predictions.
system.cpu.branchPred.condIncorrect               926                       # Number of conditional branches incorrect
system.cpu.branchPred.condPredicted            600103                       # Number of conditional branches predicted
system.cpu.branchPred.indirectHits                205                       # Number of indirect target hits.
system.cpu.branchPred.indirectLookups             415                       # Number of indirect predictor lookups.
system.cpu.branchPred.indirectMisses              210                       # Number of indirect misses.
system.cpu.branchPred.lookups                  602370                       # Number of BP lookups
system.cpu.branchPred.usedRAS                     734                       # Number of times the RAS was used to get a target.
system.cpu.branchPredindirectMispredicted          162                       # Number of mispredicted indirect branches.
system.cpu.committedInsts                   100000000                       # Number of instructions committed
system.cpu.committedOps                     100004420                       # Number of ops (including micro ops) committed
system.cpu.cpi                               5.607749                       # CPI: cycles per instruction
system.cpu.discardedOps                          2798                       # Number of ops (including micro ops) which were discarded before commit
system.cpu.dtb.accesses                             0                       # DTB accesses
system.cpu.dtb.align_faults                         0                       # Number of TLB faults due to alignment restrictions
system.cpu.dtb.domain_faults                        0                       # Number of TLB faults due to domain restrictions
system.cpu.dtb.flush_entries                        0                       # Number of entries that have been flushed from TLB
system.cpu.dtb.flush_tlb                            0                       # Number of times complete TLB was flushed
system.cpu.dtb.flush_tlb_asid                       0                       # Number of times TLB was flushed by ASID
system.cpu.dtb.flush_tlb_mva                        0                       # Number of times TLB was flushed by MVA
system.cpu.dtb.flush_tlb_mva_asid                   0                       # Number of times TLB was flushed by MVA & ASID
system.cpu.dtb.hits                                 0                       # DTB hits
system.cpu.dtb.inst_accesses                        0                       # ITB inst accesses
system.cpu.dtb.inst_hits                            0                       # ITB inst hits
system.cpu.dtb.inst_misses                          0                       # ITB inst misses
system.cpu.dtb.misses                               0                       # DTB misses
system.cpu.dtb.perms_faults                         0                       # Number of TLB faults due to permissions restrictions
system.cpu.dtb.prefetch_faults                      0                       # Number of TLB faults due to prefetch
system.cpu.dtb.read_accesses                        0                       # DTB read accesses
system.cpu.dtb.read_hits                            0                       # DTB read hits
system.cpu.dtb.read_misses                          0                       # DTB read misses
system.cpu.dtb.stage2_mmu.stage2_tlb.accesses            0                       # DTB accesses
system.cpu.dtb.stage2_mmu.stage2_tlb.align_faults            0                       # Number of TLB faults due to alignment restrictions
system.cpu.dtb.stage2_mmu.stage2_tlb.domain_faults            0                       # Number of TLB faults due to domain restrictions
system.cpu.dtb.stage2_mmu.stage2_tlb.flush_entries            0                       # Number of entries that have been flushed from TLB
system.cpu.dtb.stage2_mmu.stage2_tlb.flush_tlb            0                       # Number of times complete TLB was flushed
system.cpu.dtb.stage2_mmu.stage2_tlb.flush_tlb_asid            0                       # Number of times TLB was flushed by ASID
system.cpu.dtb.stage2_mmu.stage2_tlb.flush_tlb_mva            0                       # Number of times TLB was flushed by MVA
system.cpu.dtb.stage2_mmu.stage2_tlb.flush_tlb_mva_asid            0                       # Number of times TLB was flushed by MVA & ASID
system.cpu.dtb.stage2_mmu.stage2_tlb.hits            0                       # DTB hits
system.cpu.dtb.stage2_mmu.stage2_tlb.inst_accesses            0                       # ITB inst accesses
system.cpu.dtb.stage2_mmu.stage2_tlb.inst_hits            0                       # ITB inst hits
system.cpu.dtb.stage2_mmu.stage2_tlb.inst_misses            0                       # ITB inst misses
system.cpu.dtb.stage2_mmu.stage2_tlb.misses            0                       # DTB misses
system.cpu.dtb.stage2_mmu.stage2_tlb.perms_faults            0                       # Number of TLB faults due to permissions restrictions
system.cpu.dtb.stage2_mmu.stage2_tlb.prefetch_faults            0                       # Number of TLB faults due to prefetch
system.cpu.dtb.stage2_mmu.stage2_tlb.read_accesses            0                       # DTB read accesses
system.cpu.dtb.stage2_mmu.stage2_tlb.read_hits            0                       # DTB read hits
system.cpu.dtb.stage2_mmu.stage2_tlb.read_misses            0                       # DTB read misses
system.cpu.dtb.stage2_mmu.stage2_tlb.walker.walkRequestOrigin_Requested::Data            0                       # Table walker requests started/completed, data/inst
system.cpu.dtb.stage2_mmu.stage2_tlb.walker.walkRequestOrigin_Requested::Inst            0                       # Table walker requests started/completed, data/inst
system.cpu.dtb.stage2_mmu.stage2_tlb.walker.walkRequestOrigin_Requested::total            0                       # Table walker requests started/completed, data/inst
system.cpu.dtb.stage2_mmu.stage2_tlb.walker.walkRequestOrigin_Completed::Data            0                       # Table walker requests started/completed, data/inst
system.cpu.dtb.stage2_mmu.stage2_tlb.walker.walkRequestOrigin_Completed::Inst            0                       # Table walker requests started/completed, data/inst
system.cpu.dtb.stage2_mmu.stage2_tlb.walker.walkRequestOrigin_Completed::total            0                       # Table walker requests started/completed, data/inst
system.cpu.dtb.stage2_mmu.stage2_tlb.walker.walkRequestOrigin::total            0                       # Table walker requests started/completed, data/inst
system.cpu.dtb.stage2_mmu.stage2_tlb.walker.walks            0                       # Table walker walks requested
system.cpu.dtb.stage2_mmu.stage2_tlb.write_accesses            0                       # DTB write accesses
system.cpu.dtb.stage2_mmu.stage2_tlb.write_hits            0                       # DTB write hits
system.cpu.dtb.stage2_mmu.stage2_tlb.write_misses            0                       # DTB write misses
system.cpu.dtb.walker.walkRequestOrigin_Requested::Data            0                       # Table walker requests started/completed, data/inst
system.cpu.dtb.walker.walkRequestOrigin_Requested::Inst            0                       # Table walker requests started/completed, data/inst
system.cpu.dtb.walker.walkRequestOrigin_Requested::total            0                       # Table walker requests started/completed, data/inst
system.cpu.dtb.walker.walkRequestOrigin_Completed::Data            0                       # Table walker requests started/completed, data/inst
system.cpu.dtb.walker.walkRequestOrigin_Completed::Inst            0                       # Table walker requests started/completed, data/inst
system.cpu.dtb.walker.walkRequestOrigin_Completed::total            0                       # Table walker requests started/completed, data/inst
system.cpu.dtb.walker.walkRequestOrigin::total            0                       # Table walker requests started/completed, data/inst
system.cpu.dtb.walker.walks                         0                       # Table walker walks requested
system.cpu.dtb.write_accesses                       0                       # DTB write accesses
system.cpu.dtb.write_hits                           0                       # DTB write hits
system.cpu.dtb.write_misses                         0                       # DTB write misses
system.cpu.fetch2.amo_instructions                  0                       # Number of memory atomic instructions successfully decoded
system.cpu.fetch2.fp_instructions                   0                       # Number of floating point instructions successfully decoded
system.cpu.fetch2.int_instructions           49410996                       # Number of integer instructions successfully decoded
system.cpu.fetch2.load_instructions          36900256                       # Number of memory load instructions successfully decoded
system.cpu.fetch2.store_instructions         13094086                       # Number of memory store instructions successfully decoded
system.cpu.fetch2.vec_instructions                  0                       # Number of SIMD instructions successfully decoded
system.cpu.idleCycles                       438738379                       # Total number of cycles that the object has spent stopped
system.cpu.ipc                               0.178325                       # IPC: instructions per cycle
system.cpu.itb.accesses                             0                       # DTB accesses
system.cpu.itb.align_faults                         0                       # Number of TLB faults due to alignment restrictions
system.cpu.itb.domain_faults                        0                       # Number of TLB faults due to domain restrictions
system.cpu.itb.flush_entries                        0                       # Number of entries that have been flushed from TLB
system.cpu.itb.flush_tlb                            0                       # Number of times complete TLB was flushed
system.cpu.itb.flush_tlb_asid                       0                       # Number of times TLB was flushed by ASID
system.cpu.itb.flush_tlb_mva                        0                       # Number of times TLB was flushed by MVA
system.cpu.itb.flush_tlb_mva_asid                   0                       # Number of times TLB was flushed by MVA & ASID
system.cpu.itb.hits                                 0                       # DTB hits
system.cpu.itb.inst_accesses                        0                       # ITB inst accesses
system.cpu.itb.inst_hits                            0                       # ITB inst hits
system.cpu.itb.inst_misses                          0                       # ITB inst misses
system.cpu.itb.misses                               0                       # DTB misses
system.cpu.itb.perms_faults                         0                       # Number of TLB faults due to permissions restrictions
system.cpu.itb.prefetch_faults                      0                       # Number of TLB faults due to prefetch
system.cpu.itb.read_accesses                        0                       # DTB read accesses
system.cpu.itb.read_hits                            0                       # DTB read hits
system.cpu.itb.read_misses                          0                       # DTB read misses
system.cpu.itb.stage2_mmu.stage2_tlb.accesses            0                       # DTB accesses
system.cpu.itb.stage2_mmu.stage2_tlb.align_faults            0                       # Number of TLB faults due to alignment restrictions
system.cpu.itb.stage2_mmu.stage2_tlb.domain_faults            0                       # Number of TLB faults due to domain restrictions
system.cpu.itb.stage2_mmu.stage2_tlb.flush_entries            0                       # Number of entries that have been flushed from TLB
system.cpu.itb.stage2_mmu.stage2_tlb.flush_tlb            0                       # Number of times complete TLB was flushed
system.cpu.itb.stage2_mmu.stage2_tlb.flush_tlb_asid            0                       # Number of times TLB was flushed by ASID
system.cpu.itb.stage2_mmu.stage2_tlb.flush_tlb_mva            0                       # Number of times TLB was flushed by MVA
system.cpu.itb.stage2_mmu.stage2_tlb.flush_tlb_mva_asid            0                       # Number of times TLB was flushed by MVA & ASID
system.cpu.itb.stage2_mmu.stage2_tlb.hits            0                       # DTB hits
system.cpu.itb.stage2_mmu.stage2_tlb.inst_accesses            0                       # ITB inst accesses
system.cpu.itb.stage2_mmu.stage2_tlb.inst_hits            0                       # ITB inst hits
system.cpu.itb.stage2_mmu.stage2_tlb.inst_misses            0                       # ITB inst misses
system.cpu.itb.stage2_mmu.stage2_tlb.misses            0                       # DTB misses
system.cpu.itb.stage2_mmu.stage2_tlb.perms_faults            0                       # Number of TLB faults due to permissions restrictions
system.cpu.itb.stage2_mmu.stage2_tlb.prefetch_faults            0                       # Number of TLB faults due to prefetch
system.cpu.itb.stage2_mmu.stage2_tlb.read_accesses            0                       # DTB read accesses
system.cpu.itb.stage2_mmu.stage2_tlb.read_hits            0                       # DTB read hits
system.cpu.itb.stage2_mmu.stage2_tlb.read_misses            0                       # DTB read misses
system.cpu.itb.stage2_mmu.stage2_tlb.walker.walkRequestOrigin_Requested::Data            0                       # Table walker requests started/completed, data/inst
system.cpu.itb.stage2_mmu.stage2_tlb.walker.walkRequestOrigin_Requested::Inst            0                       # Table walker requests started/completed, data/inst
system.cpu.itb.stage2_mmu.stage2_tlb.walker.walkRequestOrigin_Requested::total            0                       # Table walker requests started/completed, data/inst
system.cpu.itb.stage2_mmu.stage2_tlb.walker.walkRequestOrigin_Completed::Data            0                       # Table walker requests started/completed, data/inst
system.cpu.itb.stage2_mmu.stage2_tlb.walker.walkRequestOrigin_Completed::Inst            0                       # Table walker requests started/completed, data/inst
system.cpu.itb.stage2_mmu.stage2_tlb.walker.walkRequestOrigin_Completed::total            0                       # Table walker requests started/completed, data/inst
system.cpu.itb.stage2_mmu.stage2_tlb.walker.walkRequestOrigin::total            0                       # Table walker requests started/completed, data/inst
system.cpu.itb.stage2_mmu.stage2_tlb.walker.walks            0                       # Table walker walks requested
system.cpu.itb.stage2_mmu.stage2_tlb.write_accesses            0                       # DTB write accesses
system.cpu.itb.stage2_mmu.stage2_tlb.write_hits            0                       # DTB write hits
system.cpu.itb.stage2_mmu.stage2_tlb.write_misses            0                       # DTB write misses
system.cpu.itb.walker.walkRequestOrigin_Requested::Data            0                       # Table walker requests started/completed, data/inst
system.cpu.itb.walker.walkRequestOrigin_Requested::Inst            0                       # Table walker requests started/completed, data/inst
system.cpu.itb.walker.walkRequestOrigin_Requested::total            0                       # Table walker requests started/completed, data/inst
system.cpu.itb.walker.walkRequestOrigin_Completed::Data            0                       # Table walker requests started/completed, data/inst
system.cpu.itb.walker.walkRequestOrigin_Completed::Inst            0                       # Table walker requests started/completed, data/inst
system.cpu.itb.walker.walkRequestOrigin_Completed::total            0                       # Table walker requests started/completed, data/inst
system.cpu.itb.walker.walkRequestOrigin::total            0                       # Table walker requests started/completed, data/inst
system.cpu.itb.walker.walks                         0                       # Table walker walks requested
system.cpu.itb.write_accesses                       0                       # DTB write accesses
system.cpu.itb.write_hits                           0                       # DTB write hits
system.cpu.itb.write_misses                         0                       # DTB write misses
system.cpu.numCycles                        560774873                       # number of cpu cycles simulated
system.cpu.numFetchSuspends                         0                       # Number of times Execute suspended instruction fetching
system.cpu.numWorkItemsCompleted                    0                       # number of work items this cpu completed
system.cpu.numWorkItemsStarted                      0                       # number of work items this cpu started
system.cpu.op_class_0::No_OpClass                   0      0.00%      0.00% # Class of committed instruction
system.cpu.op_class_0::IntAlu                50007825     50.01%     50.01% # Class of committed instruction
system.cpu.op_class_0::IntMult                     85      0.00%     50.01% # Class of committed instruction
system.cpu.op_class_0::IntDiv                       0      0.00%     50.01% # Class of committed instruction
system.cpu.op_class_0::FloatAdd                     0      0.00%     50.01% # Class of committed instruction
system.cpu.op_class_0::FloatCmp                     0      0.00%     50.01% # Class of committed instruction
system.cpu.op_class_0::FloatCvt                     0      0.00%     50.01% # Class of committed instruction
system.cpu.op_class_0::FloatMult                    0      0.00%     50.01% # Class of committed instruction
system.cpu.op_class_0::FloatMultAcc                 0      0.00%     50.01% # Class of committed instruction
system.cpu.op_class_0::FloatDiv                     0      0.00%     50.01% # Class of committed instruction
system.cpu.op_class_0::FloatMisc                    0      0.00%     50.01% # Class of committed instruction
system.cpu.op_class_0::FloatSqrt                    0      0.00%     50.01% # Class of committed instruction
system.cpu.op_class_0::SimdAdd                      0      0.00%     50.01% # Class of committed instruction
system.cpu.op_class_0::SimdAddAcc                   0      0.00%     50.01% # Class of committed instruction
system.cpu.op_class_0::SimdAlu                      0      0.00%     50.01% # Class of committed instruction
system.cpu.op_class_0::SimdCmp                      0      0.00%     50.01% # Class of committed instruction
system.cpu.op_class_0::SimdCvt                      0      0.00%     50.01% # Class of committed instruction
system.cpu.op_class_0::SimdMisc                     0      0.00%     50.01% # Class of committed instruction
system.cpu.op_class_0::SimdMult                     0      0.00%     50.01% # Class of committed instruction
system.cpu.op_class_0::SimdMultAcc                  0      0.00%     50.01% # Class of committed instruction
system.cpu.op_class_0::SimdShift                    0      0.00%     50.01% # Class of committed instruction
system.cpu.op_class_0::SimdShiftAcc                 0      0.00%     50.01% # Class of committed instruction
system.cpu.op_class_0::SimdDiv                      0      0.00%     50.01% # Class of committed instruction
system.cpu.op_class_0::SimdSqrt                     0      0.00%     50.01% # Class of committed instruction
system.cpu.op_class_0::SimdFloatAdd                 0      0.00%     50.01% # Class of committed instruction
system.cpu.op_class_0::SimdFloatAlu                 0      0.00%     50.01% # Class of committed instruction
system.cpu.op_class_0::SimdFloatCmp                 2      0.00%     50.01% # Class of committed instruction
system.cpu.op_class_0::SimdFloatCvt                 0      0.00%     50.01% # Class of committed instruction
system.cpu.op_class_0::SimdFloatDiv                 0      0.00%     50.01% # Class of committed instruction
system.cpu.op_class_0::SimdFloatMisc               22      0.00%     50.01% # Class of committed instruction
system.cpu.op_class_0::SimdFloatMult                0      0.00%     50.01% # Class of committed instruction
system.cpu.op_class_0::SimdFloatMultAcc             0      0.00%     50.01% # Class of committed instruction
system.cpu.op_class_0::SimdFloatSqrt                0      0.00%     50.01% # Class of committed instruction
system.cpu.op_class_0::SimdReduceAdd                0      0.00%     50.01% # Class of committed instruction
system.cpu.op_class_0::SimdReduceAlu                0      0.00%     50.01% # Class of committed instruction
system.cpu.op_class_0::SimdReduceCmp                0      0.00%     50.01% # Class of committed instruction
system.cpu.op_class_0::SimdFloatReduceAdd            0      0.00%     50.01% # Class of committed instruction
system.cpu.op_class_0::SimdFloatReduceCmp            0      0.00%     50.01% # Class of committed instruction
system.cpu.op_class_0::SimdAes                      0      0.00%     50.01% # Class of committed instruction
system.cpu.op_class_0::SimdAesMix                   0      0.00%     50.01% # Class of committed instruction
system.cpu.op_class_0::SimdSha1Hash                 0      0.00%     50.01% # Class of committed instruction
system.cpu.op_class_0::SimdSha1Hash2                0      0.00%     50.01% # Class of committed instruction
system.cpu.op_class_0::SimdSha256Hash               0      0.00%     50.01% # Class of committed instruction
system.cpu.op_class_0::SimdSha256Hash2              0      0.00%     50.01% # Class of committed instruction
system.cpu.op_class_0::SimdShaSigma2                0      0.00%     50.01% # Class of committed instruction
system.cpu.op_class_0::SimdShaSigma3                0      0.00%     50.01% # Class of committed instruction
system.cpu.op_class_0::SimdPredAlu                  0      0.00%     50.01% # Class of committed instruction
system.cpu.op_class_0::MemRead               36900621     36.90%     86.90% # Class of committed instruction
system.cpu.op_class_0::MemWrite              13095865     13.10%    100.00% # Class of committed instruction
system.cpu.op_class_0::FloatMemRead                 0      0.00%    100.00% # Class of committed instruction
system.cpu.op_class_0::FloatMemWrite                0      0.00%    100.00% # Class of committed instruction
system.cpu.op_class_0::IprAccess                    0      0.00%    100.00% # Class of committed instruction
system.cpu.op_class_0::InstPrefetch                 0      0.00%    100.00% # Class of committed instruction
system.cpu.op_class_0::total                100004420                       # Class of committed instruction
system.cpu.tickCycles                       122036494                       # Number of cycles that the object actually ticked
system.cpu.workload.numSyscalls                    69                       # Number of system calls
system.membus.snoop_filter.hit_multi_requests            0                       # Number of requests hitting in the snoop filter with multiple (>1) holders of the requested data.
system.membus.snoop_filter.hit_multi_snoops            0                       # Number of snoops hitting in the snoop filter with multiple (>1) holders of the requested data.
system.membus.snoop_filter.hit_single_requests      2910443                       # Number of requests hitting in the snoop filter with a single holder of the requested data.
system.membus.snoop_filter.hit_single_snoops            0                       # Number of snoops hitting in the snoop filter with a single holder of the requested data.
system.membus.snoop_filter.tot_requests       5886997                       # Total number of requests made to the snoop filter.
system.membus.snoop_filter.tot_snoops               0                       # Total number of snoops made to the snoop filter.
system.tol2bus.snoop_filter.hit_multi_requests           24                       # Number of requests hitting in the snoop filter with multiple (>1) holders of the requested data.
system.tol2bus.snoop_filter.hit_multi_snoops            1                       # Number of snoops hitting in the snoop filter with multiple (>1) holders of the requested data.
system.tol2bus.snoop_filter.hit_single_requests      2974002                       # Number of requests hitting in the snoop filter with a single holder of the requested data.
system.tol2bus.snoop_filter.hit_single_snoops          574                       # Number of snoops hitting in the snoop filter with a single holder of the requested data.
system.tol2bus.snoop_filter.tot_requests      5950624                       # Total number of requests made to the snoop filter.
system.tol2bus.snoop_filter.tot_snoops            575                       # Total number of snoops made to the snoop filter.
system.membus.pwrStateResidencyTicks::UNDEFINED 280387436500                       # Cumulative time (in ticks) in various power states
system.membus.trans_dist::ReadResp                926                       # Transaction distribution
system.membus.trans_dist::WritebackDirty      2910115                       # Transaction distribution
system.membus.trans_dist::CleanEvict              328                       # Transaction distribution
system.membus.trans_dist::ReadExReq           2975628                       # Transaction distribution
system.membus.trans_dist::ReadExResp          2975628                       # Transaction distribution
system.membus.trans_dist::ReadSharedReq           926                       # Transaction distribution
system.membus.pkt_count_system.l2.mem_side::system.mem_ctrls.port      8863551                       # Packet count per connected master and slave (bytes)
system.membus.pkt_count::total                8863551                       # Packet count per connected master and slave (bytes)
system.membus.pkt_size_system.l2.mem_side::system.mem_ctrls.port    188373408                       # Cumulative packet size per connected master and slave (bytes)
system.membus.pkt_size::total               188373408                       # Cumulative packet size per connected master and slave (bytes)
system.membus.snoops                                0                       # Total snoops (count)
system.membus.snoopTraffic                          0                       # Total snoop traffic (bytes)
system.membus.snoop_fanout::samples           2976554                       # Request fanout histogram
system.membus.snoop_fanout::mean                    0                       # Request fanout histogram
system.membus.snoop_fanout::stdev                   0                       # Request fanout histogram
system.membus.snoop_fanout::underflows              0      0.00%      0.00% # Request fanout histogram
system.membus.snoop_fanout::0                 2976554    100.00%    100.00% # Request fanout histogram
system.membus.snoop_fanout::1                       0      0.00%    100.00% # Request fanout histogram
system.membus.snoop_fanout::overflows               0      0.00%    100.00% # Request fanout histogram
system.membus.snoop_fanout::min_value               0                       # Request fanout histogram
system.membus.snoop_fanout::max_value               0                       # Request fanout histogram
system.membus.snoop_fanout::total             2976554                       # Request fanout histogram
system.membus.respLayer1.occupancy         9714664000                       # Layer occupancy (ticks)
system.membus.respLayer1.utilization              3.5                       # Layer utilization (%)
system.membus.reqLayer0.occupancy         11707362500                       # Layer occupancy (ticks)
system.membus.reqLayer0.utilization               4.2                       # Layer utilization (%)
system.tol2bus.pwrStateResidencyTicks::UNDEFINED 280387436500                       # Cumulative time (in ticks) in various power states
system.tol2bus.trans_dist::ReadResp               995                       # Transaction distribution
system.tol2bus.trans_dist::WritebackDirty      5883720                       # Transaction distribution
system.tol2bus.trans_dist::WritebackClean          242                       # Transaction distribution
system.tol2bus.trans_dist::CleanEvict            1057                       # Transaction distribution
system.tol2bus.trans_dist::ReadExReq          2975628                       # Transaction distribution
system.tol2bus.trans_dist::ReadExResp         2975628                       # Transaction distribution
system.tol2bus.trans_dist::ReadCleanReq           816                       # Transaction distribution
system.tol2bus.trans_dist::ReadSharedReq          179                       # Transaction distribution
system.tol2bus.pkt_count_system.cpu.icache.mem_side::system.l2.cpu_side         1874                       # Packet count per connected master and slave (bytes)
system.tol2bus.pkt_count_system.cpu.dcache.mem_side::system.l2.cpu_side      8925373                       # Packet count per connected master and slave (bytes)
system.tol2bus.pkt_count::total               8927247                       # Packet count per connected master and slave (bytes)
system.tol2bus.pkt_size_system.cpu.icache.mem_side::system.l2.cpu_side        33856                       # Cumulative packet size per connected master and slave (bytes)
system.tol2bus.pkt_size_system.cpu.dcache.mem_side::system.l2.cpu_side    190381184                       # Cumulative packet size per connected master and slave (bytes)
system.tol2bus.pkt_size::total              190415040                       # Cumulative packet size per connected master and slave (bytes)
system.tol2bus.snoops                         2911018                       # Total snoops (count)
system.tol2bus.snoopTraffic                  93123680                       # Total snoop traffic (bytes)
system.tol2bus.snoop_fanout::samples          5887641                       # Request fanout histogram
system.tol2bus.snoop_fanout::mean            0.000102                       # Request fanout histogram
system.tol2bus.snoop_fanout::stdev           0.010120                       # Request fanout histogram
system.tol2bus.snoop_fanout::underflows             0      0.00%      0.00% # Request fanout histogram
system.tol2bus.snoop_fanout::0                5887041     99.99%     99.99% # Request fanout histogram
system.tol2bus.snoop_fanout::1                    599      0.01%    100.00% # Request fanout histogram
system.tol2bus.snoop_fanout::2                      1      0.00%    100.00% # Request fanout histogram
system.tol2bus.snoop_fanout::overflows              0      0.00%    100.00% # Request fanout histogram
system.tol2bus.snoop_fanout::min_value              0                       # Request fanout histogram
system.tol2bus.snoop_fanout::max_value              2                       # Request fanout histogram
system.tol2bus.snoop_fanout::total            5887641                       # Request fanout histogram
system.tol2bus.reqLayer0.occupancy         4462235500                       # Layer occupancy (ticks)
system.tol2bus.reqLayer0.utilization              1.6                       # Layer utilization (%)
system.tol2bus.respLayer1.occupancy        2975808996                       # Layer occupancy (ticks)
system.tol2bus.respLayer1.utilization             1.1                       # Layer utilization (%)
system.tol2bus.respLayer0.occupancy            816499                       # Layer occupancy (ticks)
system.tol2bus.respLayer0.utilization             0.0                       # Layer utilization (%)
system.voltage_domain.voltage                       1                       # Voltage in Volts
system.clk_domain.clock                          1000                       # Clock period in ticks
system.l2.pwrStateResidencyTicks::UNDEFINED 280387436500                       # Cumulative time (in ticks) in various power states
system.l2.demand_hits::.cpu.inst                   55                       # number of demand (read+write) hits
system.l2.demand_hits::.cpu.data                    9                       # number of demand (read+write) hits
system.l2.demand_hits::total                       64                       # number of demand (read+write) hits
system.l2.overall_hits::.cpu.inst                  55                       # number of overall hits
system.l2.overall_hits::.cpu.data                   9                       # number of overall hits
system.l2.overall_hits::total                      64                       # number of overall hits
system.l2.demand_misses::.cpu.inst                761                       # number of demand (read+write) misses
system.l2.demand_misses::.cpu.data            2975798                       # number of demand (read+write) misses
system.l2.demand_misses::total                2976559                       # number of demand (read+write) misses
system.l2.overall_misses::.cpu.inst               761                       # number of overall misses
system.l2.overall_misses::.cpu.data           2975798                       # number of overall misses
system.l2.overall_misses::total               2976559                       # number of overall misses
system.l2.demand_miss_latency::.cpu.inst     56915000                       # number of demand (read+write) miss cycles
system.l2.demand_miss_latency::.cpu.data 228852154000                       # number of demand (read+write) miss cycles
system.l2.demand_miss_latency::total     228909069000                       # number of demand (read+write) miss cycles
system.l2.overall_miss_latency::.cpu.inst     56915000                       # number of overall miss cycles
system.l2.overall_miss_latency::.cpu.data 228852154000                       # number of overall miss cycles
system.l2.overall_miss_latency::total    228909069000                       # number of overall miss cycles
system.l2.demand_accesses::.cpu.inst              816                       # number of demand (read+write) accesses
system.l2.demand_accesses::.cpu.data          2975807                       # number of demand (read+write) accesses
system.l2.demand_accesses::total              2976623                       # number of demand (read+write) accesses
system.l2.overall_accesses::.cpu.inst             816                       # number of overall (read+write) accesses
system.l2.overall_accesses::.cpu.data         2975807                       # number of overall (read+write) accesses
system.l2.overall_accesses::total             2976623                       # number of overall (read+write) accesses
system.l2.demand_miss_rate::.cpu.inst        0.932598                       # miss rate for demand accesses
system.l2.demand_miss_rate::.cpu.data        0.999997                       # miss rate for demand accesses
system.l2.demand_miss_rate::total            0.999978                       # miss rate for demand accesses
system.l2.overall_miss_rate::.cpu.inst       0.932598                       # miss rate for overall accesses
system.l2.overall_miss_rate::.cpu.data       0.999997                       # miss rate for overall accesses
system.l2.overall_miss_rate::total           0.999978                       # miss rate for overall accesses
system.l2.demand_avg_miss_latency::.cpu.inst 74789.750329                       # average overall miss latency
system.l2.demand_avg_miss_latency::.cpu.data 76904.465290                       # average overall miss latency
system.l2.demand_avg_miss_latency::total 76903.924632                       # average overall miss latency
system.l2.overall_avg_miss_latency::.cpu.inst 74789.750329                       # average overall miss latency
system.l2.overall_avg_miss_latency::.cpu.data 76904.465290                       # average overall miss latency
system.l2.overall_avg_miss_latency::total 76903.924632                       # average overall miss latency
system.l2.blocked_cycles::no_mshrs                  0                       # number of cycles access was blocked
system.l2.blocked_cycles::no_targets                0                       # number of cycles access was blocked
system.l2.blocked::no_mshrs                         0                       # number of cycles access was blocked
system.l2.blocked::no_targets                       0                       # number of cycles access was blocked
system.l2.avg_blocked_cycles::no_mshrs            nan                       # average number of cycles each access was blocked
system.l2.avg_blocked_cycles::no_targets          nan                       # average number of cycles each access was blocked
system.l2.writebacks::.writebacks             2910115                       # number of writebacks
system.l2.writebacks::total                   2910115                       # number of writebacks
system.l2.demand_mshr_hits::.cpu.inst               1                       # number of demand (read+write) MSHR hits
system.l2.demand_mshr_hits::.cpu.data               4                       # number of demand (read+write) MSHR hits
system.l2.demand_mshr_hits::total                   5                       # number of demand (read+write) MSHR hits
system.l2.overall_mshr_hits::.cpu.inst              1                       # number of overall MSHR hits
system.l2.overall_mshr_hits::.cpu.data              4                       # number of overall MSHR hits
system.l2.overall_mshr_hits::total                  5                       # number of overall MSHR hits
system.l2.demand_mshr_misses::.cpu.inst           760                       # number of demand (read+write) MSHR misses
system.l2.demand_mshr_misses::.cpu.data       2975794                       # number of demand (read+write) MSHR misses
system.l2.demand_mshr_misses::total           2976554                       # number of demand (read+write) MSHR misses
system.l2.overall_mshr_misses::.cpu.inst          760                       # number of overall MSHR misses
system.l2.overall_mshr_misses::.cpu.data      2975794                       # number of overall MSHR misses
system.l2.overall_mshr_misses::total          2976554                       # number of overall MSHR misses
system.l2.demand_mshr_miss_latency::.cpu.inst     49244500                       # number of demand (read+write) MSHR miss cycles
system.l2.demand_mshr_miss_latency::.cpu.data 199093947000                       # number of demand (read+write) MSHR miss cycles
system.l2.demand_mshr_miss_latency::total 199143191500                       # number of demand (read+write) MSHR miss cycles
system.l2.overall_mshr_miss_latency::.cpu.inst     49244500                       # number of overall MSHR miss cycles
system.l2.overall_mshr_miss_latency::.cpu.data 199093947000                       # number of overall MSHR miss cycles
system.l2.overall_mshr_miss_latency::total 199143191500                       # number of overall MSHR miss cycles
system.l2.demand_mshr_miss_rate::.cpu.inst     0.931373                       # mshr miss rate for demand accesses
system.l2.demand_mshr_miss_rate::.cpu.data     0.999996                       # mshr miss rate for demand accesses
system.l2.demand_mshr_miss_rate::total       0.999977                       # mshr miss rate for demand accesses
system.l2.overall_mshr_miss_rate::.cpu.inst     0.931373                       # mshr miss rate for overall accesses
system.l2.overall_mshr_miss_rate::.cpu.data     0.999996                       # mshr miss rate for overall accesses
system.l2.overall_mshr_miss_rate::total      0.999977                       # mshr miss rate for overall accesses
system.l2.demand_avg_mshr_miss_latency::.cpu.inst 64795.394737                       # average overall mshr miss latency
system.l2.demand_avg_mshr_miss_latency::.cpu.data 66904.478939                       # average overall mshr miss latency
system.l2.demand_avg_mshr_miss_latency::total 66903.940429                       # average overall mshr miss latency
system.l2.overall_avg_mshr_miss_latency::.cpu.inst 64795.394737                       # average overall mshr miss latency
system.l2.overall_avg_mshr_miss_latency::.cpu.data 66904.478939                       # average overall mshr miss latency
system.l2.overall_avg_mshr_miss_latency::total 66903.940429                       # average overall mshr miss latency
system.l2.replacements                        2911018                       # number of replacements
system.l2.WritebackDirty_hits::.writebacks      2973605                       # number of WritebackDirty hits
system.l2.WritebackDirty_hits::total          2973605                       # number of WritebackDirty hits
system.l2.WritebackDirty_accesses::.writebacks      2973605                       # number of WritebackDirty accesses(hits+misses)
system.l2.WritebackDirty_accesses::total      2973605                       # number of WritebackDirty accesses(hits+misses)
system.l2.WritebackClean_hits::.writebacks          236                       # number of WritebackClean hits
system.l2.WritebackClean_hits::total              236                       # number of WritebackClean hits
system.l2.WritebackClean_accesses::.writebacks          236                       # number of WritebackClean accesses(hits+misses)
system.l2.WritebackClean_accesses::total          236                       # number of WritebackClean accesses(hits+misses)
system.l2.ReadExReq_misses::.cpu.data         2975628                       # number of ReadExReq misses
system.l2.ReadExReq_misses::total             2975628                       # number of ReadExReq misses
system.l2.ReadExReq_miss_latency::.cpu.data 228838053000                       # number of ReadExReq miss cycles
system.l2.ReadExReq_miss_latency::total  228838053000                       # number of ReadExReq miss cycles
system.l2.ReadExReq_accesses::.cpu.data       2975628                       # number of ReadExReq accesses(hits+misses)
system.l2.ReadExReq_accesses::total           2975628                       # number of ReadExReq accesses(hits+misses)
system.l2.ReadExReq_miss_rate::.cpu.data            1                       # miss rate for ReadExReq accesses
system.l2.ReadExReq_miss_rate::total                1                       # miss rate for ReadExReq accesses
system.l2.ReadExReq_avg_miss_latency::.cpu.data 76904.120071                       # average ReadExReq miss latency
system.l2.ReadExReq_avg_miss_latency::total 76904.120071                       # average ReadExReq miss latency
system.l2.ReadExReq_mshr_misses::.cpu.data      2975628                       # number of ReadExReq MSHR misses
system.l2.ReadExReq_mshr_misses::total        2975628                       # number of ReadExReq MSHR misses
system.l2.ReadExReq_mshr_miss_latency::.cpu.data 199081773000                       # number of ReadExReq MSHR miss cycles
system.l2.ReadExReq_mshr_miss_latency::total 199081773000                       # number of ReadExReq MSHR miss cycles
system.l2.ReadExReq_mshr_miss_rate::.cpu.data            1                       # mshr miss rate for ReadExReq accesses
system.l2.ReadExReq_mshr_miss_rate::total            1                       # mshr miss rate for ReadExReq accesses
system.l2.ReadExReq_avg_mshr_miss_latency::.cpu.data 66904.120071                       # average ReadExReq mshr miss latency
system.l2.ReadExReq_avg_mshr_miss_latency::total 66904.120071                       # average ReadExReq mshr miss latency
system.l2.ReadCleanReq_hits::.cpu.inst             55                       # number of ReadCleanReq hits
system.l2.ReadCleanReq_hits::total                 55                       # number of ReadCleanReq hits
system.l2.ReadCleanReq_misses::.cpu.inst          761                       # number of ReadCleanReq misses
system.l2.ReadCleanReq_misses::total              761                       # number of ReadCleanReq misses
system.l2.ReadCleanReq_miss_latency::.cpu.inst     56915000                       # number of ReadCleanReq miss cycles
system.l2.ReadCleanReq_miss_latency::total     56915000                       # number of ReadCleanReq miss cycles
system.l2.ReadCleanReq_accesses::.cpu.inst          816                       # number of ReadCleanReq accesses(hits+misses)
system.l2.ReadCleanReq_accesses::total            816                       # number of ReadCleanReq accesses(hits+misses)
system.l2.ReadCleanReq_miss_rate::.cpu.inst     0.932598                       # miss rate for ReadCleanReq accesses
system.l2.ReadCleanReq_miss_rate::total      0.932598                       # miss rate for ReadCleanReq accesses
system.l2.ReadCleanReq_avg_miss_latency::.cpu.inst 74789.750329                       # average ReadCleanReq miss latency
system.l2.ReadCleanReq_avg_miss_latency::total 74789.750329                       # average ReadCleanReq miss latency
system.l2.ReadCleanReq_mshr_hits::.cpu.inst            1                       # number of ReadCleanReq MSHR hits
system.l2.ReadCleanReq_mshr_hits::total             1                       # number of ReadCleanReq MSHR hits
system.l2.ReadCleanReq_mshr_misses::.cpu.inst          760                       # number of ReadCleanReq MSHR misses
system.l2.ReadCleanReq_mshr_misses::total          760                       # number of ReadCleanReq MSHR misses
system.l2.ReadCleanReq_mshr_miss_latency::.cpu.inst     49244500                       # number of ReadCleanReq MSHR miss cycles
system.l2.ReadCleanReq_mshr_miss_latency::total     49244500                       # number of ReadCleanReq MSHR miss cycles
system.l2.ReadCleanReq_mshr_miss_rate::.cpu.inst     0.931373                       # mshr miss rate for ReadCleanReq accesses
system.l2.ReadCleanReq_mshr_miss_rate::total     0.931373                       # mshr miss rate for ReadCleanReq accesses
system.l2.ReadCleanReq_avg_mshr_miss_latency::.cpu.inst 64795.394737                       # average ReadCleanReq mshr miss latency
system.l2.ReadCleanReq_avg_mshr_miss_latency::total 64795.394737                       # average ReadCleanReq mshr miss latency
system.l2.ReadSharedReq_hits::.cpu.data             9                       # number of ReadSharedReq hits
system.l2.ReadSharedReq_hits::total                 9                       # number of ReadSharedReq hits
system.l2.ReadSharedReq_misses::.cpu.data          170                       # number of ReadSharedReq misses
system.l2.ReadSharedReq_misses::total             170                       # number of ReadSharedReq misses
system.l2.ReadSharedReq_miss_latency::.cpu.data     14101000                       # number of ReadSharedReq miss cycles
system.l2.ReadSharedReq_miss_latency::total     14101000                       # number of ReadSharedReq miss cycles
system.l2.ReadSharedReq_accesses::.cpu.data          179                       # number of ReadSharedReq accesses(hits+misses)
system.l2.ReadSharedReq_accesses::total           179                       # number of ReadSharedReq accesses(hits+misses)
system.l2.ReadSharedReq_miss_rate::.cpu.data     0.949721                       # miss rate for ReadSharedReq accesses
system.l2.ReadSharedReq_miss_rate::total     0.949721                       # miss rate for ReadSharedReq accesses
system.l2.ReadSharedReq_avg_miss_latency::.cpu.data 82947.058824                       # average ReadSharedReq miss latency
system.l2.ReadSharedReq_avg_miss_latency::total 82947.058824                       # average ReadSharedReq miss latency
system.l2.ReadSharedReq_mshr_hits::.cpu.data            4                       # number of ReadSharedReq MSHR hits
system.l2.ReadSharedReq_mshr_hits::total            4                       # number of ReadSharedReq MSHR hits
system.l2.ReadSharedReq_mshr_misses::.cpu.data          166                       # number of ReadSharedReq MSHR misses
system.l2.ReadSharedReq_mshr_misses::total          166                       # number of ReadSharedReq MSHR misses
system.l2.ReadSharedReq_mshr_miss_latency::.cpu.data     12174000                       # number of ReadSharedReq MSHR miss cycles
system.l2.ReadSharedReq_mshr_miss_latency::total     12174000                       # number of ReadSharedReq MSHR miss cycles
system.l2.ReadSharedReq_mshr_miss_rate::.cpu.data     0.927374                       # mshr miss rate for ReadSharedReq accesses
system.l2.ReadSharedReq_mshr_miss_rate::total     0.927374                       # mshr miss rate for ReadSharedReq accesses
system.l2.ReadSharedReq_avg_mshr_miss_latency::.cpu.data 73337.349398                       # average ReadSharedReq mshr miss latency
system.l2.ReadSharedReq_avg_mshr_miss_latency::total 73337.349398                       # average ReadSharedReq mshr miss latency
system.l2.tags.pwrStateResidencyTicks::UNDEFINED 280387436500                       # Cumulative time (in ticks) in various power states
system.l2.tags.tagsinuse                 64844.017400                       # Cycle average of tags in use
system.l2.tags.total_refs                     5950595                       # Total number of references to valid blocks.
system.l2.tags.sampled_refs                   2976554                       # Sample count of references to valid blocks.
system.l2.tags.avg_refs                      1.999156                       # Average number of references to valid blocks.
system.l2.tags.warmup_cycle                     77000                       # Cycle when the warmup percentage was hit.
system.l2.tags.occ_blocks::.cpu.inst        15.105271                       # Average occupied blocks per requestor
system.l2.tags.occ_blocks::.cpu.data     64828.912129                       # Average occupied blocks per requestor
system.l2.tags.occ_percent::.cpu.inst        0.000230                       # Average percentage of cache occupancy
system.l2.tags.occ_percent::.cpu.data        0.989211                       # Average percentage of cache occupancy
system.l2.tags.occ_percent::total            0.989441                       # Average percentage of cache occupancy
system.l2.tags.occ_task_id_blocks::1024         65536                       # Occupied blocks per task id
system.l2.tags.age_task_id_blocks_1024::0          108                       # Occupied blocks per task id
system.l2.tags.age_task_id_blocks_1024::1          954                       # Occupied blocks per task id
system.l2.tags.age_task_id_blocks_1024::2         9547                       # Occupied blocks per task id
system.l2.tags.age_task_id_blocks_1024::3        54927                       # Occupied blocks per task id
system.l2.tags.occ_task_id_percent::1024            1                       # Percentage of cache occupancy per task id
system.l2.tags.tag_accesses                  50581354                       # Number of tag accesses
system.l2.tags.data_accesses                 50581354                       # Number of data accesses
system.cpu_voltage_domain.voltage                   1                       # Voltage in Volts
system.mem_ctrls.pwrStateResidencyTicks::UNDEFINED 280387436500                       # Cumulative time (in ticks) in various power states
system.mem_ctrls.bytes_read::.cpu.inst          24320                       # Number of bytes read from this memory
system.mem_ctrls.bytes_read::.cpu.data       95225408                       # Number of bytes read from this memory
system.mem_ctrls.bytes_read::total           95249728                       # Number of bytes read from this memory
system.mem_ctrls.bytes_inst_read::.cpu.inst        24320                       # Number of instructions bytes read from this memory
system.mem_ctrls.bytes_inst_read::total         24320                       # Number of instructions bytes read from this memory
system.mem_ctrls.bytes_written::.writebacks     93123680                       # Number of bytes written to this memory
system.mem_ctrls.bytes_written::total        93123680                       # Number of bytes written to this memory
system.mem_ctrls.num_reads::.cpu.inst             760                       # Number of read requests responded to by this memory
system.mem_ctrls.num_reads::.cpu.data         2975794                       # Number of read requests responded to by this memory
system.mem_ctrls.num_reads::total             2976554                       # Number of read requests responded to by this memory
system.mem_ctrls.num_writes::.writebacks      2910115                       # Number of write requests responded to by this memory
system.mem_ctrls.num_writes::total            2910115                       # Number of write requests responded to by this memory
system.mem_ctrls.bw_read::.cpu.inst             86737                       # Total read bandwidth from this memory (bytes/s)
system.mem_ctrls.bw_read::.cpu.data         339620809                       # Total read bandwidth from this memory (bytes/s)
system.mem_ctrls.bw_read::total             339707546                       # Total read bandwidth from this memory (bytes/s)
system.mem_ctrls.bw_inst_read::.cpu.inst        86737                       # Instruction read bandwidth from this memory (bytes/s)
system.mem_ctrls.bw_inst_read::total            86737                       # Instruction read bandwidth from this memory (bytes/s)
system.mem_ctrls.bw_write::.writebacks      332125009                       # Write bandwidth from this memory (bytes/s)
system.mem_ctrls.bw_write::total            332125009                       # Write bandwidth from this memory (bytes/s)
system.mem_ctrls.bw_total::.writebacks      332125009                       # Total bandwidth to/from this memory (bytes/s)
system.mem_ctrls.bw_total::.cpu.inst            86737                       # Total bandwidth to/from this memory (bytes/s)
system.mem_ctrls.bw_total::.cpu.data        339620809                       # Total bandwidth to/from this memory (bytes/s)
system.mem_ctrls.bw_total::total            671832556                       # Total bandwidth to/from this memory (bytes/s)
system.mem_ctrls.avgPriority_.writebacks::samples   1455073.00                       # Average QoS priority value for accepted requests
system.mem_ctrls.avgPriority_.cpu.inst::samples       760.00                       # Average QoS priority value for accepted requests
system.mem_ctrls.avgPriority_.cpu.data::samples   2975794.00                       # Average QoS priority value for accepted requests
system.mem_ctrls.priorityMinLatency      0.000000018750                       # per QoS priority minimum request to response latency (s)
system.mem_ctrls.priorityMaxLatency      0.000841292500                       # per QoS priority maximum request to response latency (s)
system.mem_ctrls.numReadWriteTurnArounds        90940                       # Number of turnarounds from READ to WRITE
system.mem_ctrls.numWriteReadTurnArounds        90941                       # Number of turnarounds from WRITE to READ
system.mem_ctrls.numStayReadState             8840879                       # Number of times bus staying in READ state
system.mem_ctrls.numStayWriteState            1366381                       # Number of times bus staying in WRITE state
system.mem_ctrls.readReqs                     2976554                       # Number of read requests accepted
system.mem_ctrls.writeReqs                    2910115                       # Number of write requests accepted
system.mem_ctrls.readBursts                   2976554                       # Number of DRAM read bursts, including those serviced by the write queue
system.mem_ctrls.writeBursts                  2910115                       # Number of DRAM write bursts, including those merged in the write queue
system.mem_ctrls.servicedByWrQ                      0                       # Number of DRAM read bursts serviced by the write queue
system.mem_ctrls.mergedWrBursts               1455042                       # Number of DRAM write bursts merged with an existing one
system.mem_ctrls.neitherReadNorWriteReqs            0                       # Number of requests that are neither read nor write
system.mem_ctrls.perBankRdBursts::0            186081                       # Per bank write bursts
system.mem_ctrls.perBankRdBursts::1            185915                       # Per bank write bursts
system.mem_ctrls.perBankRdBursts::2            185964                       # Per bank write bursts
system.mem_ctrls.perBankRdBursts::3            185999                       # Per bank write bursts
system.mem_ctrls.perBankRdBursts::4            186179                       # Per bank write bursts
system.mem_ctrls.perBankRdBursts::5            186139                       # Per bank write bursts
system.mem_ctrls.perBankRdBursts::6            186119                       # Per bank write bursts
system.mem_ctrls.perBankRdBursts::7            186147                       # Per bank write bursts
system.mem_ctrls.perBankRdBursts::8            186258                       # Per bank write bursts
system.mem_ctrls.perBankRdBursts::9            186131                       # Per bank write bursts
system.mem_ctrls.perBankRdBursts::10           186031                       # Per bank write bursts
system.mem_ctrls.perBankRdBursts::11           185894                       # Per bank write bursts
system.mem_ctrls.perBankRdBursts::12           185961                       # Per bank write bursts
system.mem_ctrls.perBankRdBursts::13           185889                       # Per bank write bursts
system.mem_ctrls.perBankRdBursts::14           185897                       # Per bank write bursts
system.mem_ctrls.perBankRdBursts::15           185950                       # Per bank write bursts
system.mem_ctrls.perBankWrBursts::0             90924                       # Per bank write bursts
system.mem_ctrls.perBankWrBursts::1             90903                       # Per bank write bursts
system.mem_ctrls.perBankWrBursts::2             90895                       # Per bank write bursts
system.mem_ctrls.perBankWrBursts::3             90950                       # Per bank write bursts
system.mem_ctrls.perBankWrBursts::4             91009                       # Per bank write bursts
system.mem_ctrls.perBankWrBursts::5             91008                       # Per bank write bursts
system.mem_ctrls.perBankWrBursts::6             91008                       # Per bank write bursts
system.mem_ctrls.perBankWrBursts::7             91008                       # Per bank write bursts
system.mem_ctrls.perBankWrBursts::8             91008                       # Per bank write bursts
system.mem_ctrls.perBankWrBursts::9             91008                       # Per bank write bursts
system.mem_ctrls.perBankWrBursts::10            90921                       # Per bank write bursts
system.mem_ctrls.perBankWrBursts::11            90880                       # Per bank write bursts
system.mem_ctrls.perBankWrBursts::12            90880                       # Per bank write bursts
system.mem_ctrls.perBankWrBursts::13            90880                       # Per bank write bursts
system.mem_ctrls.perBankWrBursts::14            90880                       # Per bank write bursts
system.mem_ctrls.perBankWrBursts::15            90884                       # Per bank write bursts
system.mem_ctrls.avgRdQLen                       1.00                       # Average read queue length when enqueuing
system.mem_ctrls.avgWrQLen                      25.30                       # Average write queue length when enqueuing
system.mem_ctrls.totQLat                  21997218500                       # Total ticks spent queuing
system.mem_ctrls.totBusLat                14882770000                       # Total ticks spent in databus transfers
system.mem_ctrls.totMemAccLat             77807606000                       # Total ticks spent from burst creation until serviced by the DRAM
system.mem_ctrls.avgQLat                      7390.16                       # Average queueing delay per DRAM burst
system.mem_ctrls.avgBusLat                    5000.00                       # Average bus latency per DRAM burst
system.mem_ctrls.avgMemAccLat                26140.16                       # Average memory access latency per DRAM burst
system.mem_ctrls.numRdRetry                         0                       # Number of times read queue was full causing retry
system.mem_ctrls.numWrRetry                         0                       # Number of times write queue was full causing retry
system.mem_ctrls.readRowHits                  2749493                       # Number of row buffer hits during reads
system.mem_ctrls.writeRowHits                 1351594                       # Number of row buffer hits during writes
system.mem_ctrls.readRowHitRate                 92.37                       # Row buffer hit rate for reads
system.mem_ctrls.writeRowHitRate                92.89                       # Row buffer hit rate for writes
system.mem_ctrls.readPktSize::0                     0                       # Read request sizes (log2)
system.mem_ctrls.readPktSize::1                     0                       # Read request sizes (log2)
system.mem_ctrls.readPktSize::2                     0                       # Read request sizes (log2)
system.mem_ctrls.readPktSize::3                     0                       # Read request sizes (log2)
system.mem_ctrls.readPktSize::4                     0                       # Read request sizes (log2)
system.mem_ctrls.readPktSize::5               2976554                       # Read request sizes (log2)
system.mem_ctrls.readPktSize::6                     0                       # Read request sizes (log2)
system.mem_ctrls.writePktSize::0                    0                       # Write request sizes (log2)
system.mem_ctrls.writePktSize::1                    0                       # Write request sizes (log2)
system.mem_ctrls.writePktSize::2                    0                       # Write request sizes (log2)
system.mem_ctrls.writePktSize::3                    0                       # Write request sizes (log2)
system.mem_ctrls.writePktSize::4                    0                       # Write request sizes (log2)
system.mem_ctrls.writePktSize::5              2910115                       # Write request sizes (log2)
system.mem_ctrls.writePktSize::6                    0                       # Write request sizes (log2)
system.mem_ctrls.rdQLenPdf::0                 2976389                       # What read queue length does an incoming req see
system.mem_ctrls.rdQLenPdf::1                     147                       # What read queue length does an incoming req see
system.mem_ctrls.rdQLenPdf::2                      16                       # What read queue length does an incoming req see
system.mem_ctrls.rdQLenPdf::3                       2                       # What read queue length does an incoming req see
system.mem_ctrls.rdQLenPdf::4                       0                       # What read queue length does an incoming req see
system.mem_ctrls.rdQLenPdf::5                       0                       # What read queue length does an incoming req see
system.mem_ctrls.rdQLenPdf::6                       0                       # What read queue length does an incoming req see
system.mem_ctrls.rdQLenPdf::7                       0                       # What read queue length does an incoming req see
system.mem_ctrls.rdQLenPdf::8                       0                       # What read queue length does an incoming req see
system.mem_ctrls.rdQLenPdf::9                       0                       # What read queue length does an incoming req see
system.mem_ctrls.rdQLenPdf::10                      0                       # What read queue length does an incoming req see
system.mem_ctrls.rdQLenPdf::11                      0                       # What read queue length does an incoming req see
system.mem_ctrls.rdQLenPdf::12                      0                       # What read queue length does an incoming req see
system.mem_ctrls.rdQLenPdf::13                      0                       # What read queue length does an incoming req see
system.mem_ctrls.rdQLenPdf::14                      0                       # What read queue length does an incoming req see
system.mem_ctrls.rdQLenPdf::15                      0                       # What read queue length does an incoming req see
system.mem_ctrls.rdQLenPdf::16                      0                       # What read queue length does an incoming req see
system.mem_ctrls.rdQLenPdf::17                      0                       # What read queue length does an incoming req see
system.mem_ctrls.rdQLenPdf::18                      0                       # What read queue length does an incoming req see
system.mem_ctrls.rdQLenPdf::19                      0                       # What read queue length does an incoming req see
system.mem_ctrls.rdQLenPdf::20                      0                       # What read queue length does an incoming req see
system.mem_ctrls.rdQLenPdf::21                      0                       # What read queue length does an incoming req see
system.mem_ctrls.rdQLenPdf::22                      0                       # What read queue length does an incoming req see
system.mem_ctrls.rdQLenPdf::23                      0                       # What read queue length does an incoming req see
system.mem_ctrls.rdQLenPdf::24                      0                       # What read queue length does an incoming req see
system.mem_ctrls.rdQLenPdf::25                      0                       # What read queue length does an incoming req see
system.mem_ctrls.rdQLenPdf::26                      0                       # What read queue length does an incoming req see
system.mem_ctrls.rdQLenPdf::27                      0                       # What read queue length does an incoming req see
system.mem_ctrls.rdQLenPdf::28                      0                       # What read queue length does an incoming req see
system.mem_ctrls.rdQLenPdf::29                      0                       # What read queue length does an incoming req see
system.mem_ctrls.rdQLenPdf::30                      0                       # What read queue length does an incoming req see
system.mem_ctrls.rdQLenPdf::31                      0                       # What read queue length does an incoming req see
system.mem_ctrls.wrQLenPdf::0                       1                       # What write queue length does an incoming req see
system.mem_ctrls.wrQLenPdf::1                       1                       # What write queue length does an incoming req see
system.mem_ctrls.wrQLenPdf::2                       1                       # What write queue length does an incoming req see
system.mem_ctrls.wrQLenPdf::3                       1                       # What write queue length does an incoming req see
system.mem_ctrls.wrQLenPdf::4                       1                       # What write queue length does an incoming req see
system.mem_ctrls.wrQLenPdf::5                       1                       # What write queue length does an incoming req see
system.mem_ctrls.wrQLenPdf::6                       1                       # What write queue length does an incoming req see
system.mem_ctrls.wrQLenPdf::7                       1                       # What write queue length does an incoming req see
system.mem_ctrls.wrQLenPdf::8                       1                       # What write queue length does an incoming req see
system.mem_ctrls.wrQLenPdf::9                       1                       # What write queue length does an incoming req see
system.mem_ctrls.wrQLenPdf::10                      1                       # What write queue length does an incoming req see
system.mem_ctrls.wrQLenPdf::11                      1                       # What write queue length does an incoming req see
system.mem_ctrls.wrQLenPdf::12                      1                       # What write queue length does an incoming req see
system.mem_ctrls.wrQLenPdf::13                      1                       # What write queue length does an incoming req see
system.mem_ctrls.wrQLenPdf::14                      1                       # What write queue length does an incoming req see
system.mem_ctrls.wrQLenPdf::15                      1                       # What write queue length does an incoming req see
system.mem_ctrls.wrQLenPdf::16                      1                       # What write queue length does an incoming req see
system.mem_ctrls.wrQLenPdf::17                  90941                       # What write queue length does an incoming req see
system.mem_ctrls.wrQLenPdf::18                  90941                       # What write queue length does an incoming req see
system.mem_ctrls.wrQLenPdf::19                  90941                       # What write queue length does an incoming req see
system.mem_ctrls.wrQLenPdf::20                  90941                       # What write queue length does an incoming req see
system.mem_ctrls.wrQLenPdf::21                  90941                       # What write queue length does an incoming req see
system.mem_ctrls.wrQLenPdf::22                  90941                       # What write queue length does an incoming req see
system.mem_ctrls.wrQLenPdf::23                  90941                       # What write queue length does an incoming req see
system.mem_ctrls.wrQLenPdf::24                  90941                       # What write queue length does an incoming req see
system.mem_ctrls.wrQLenPdf::25                  90941                       # What write queue length does an incoming req see
system.mem_ctrls.wrQLenPdf::26                  90941                       # What write queue length does an incoming req see
system.mem_ctrls.wrQLenPdf::27                  90941                       # What write queue length does an incoming req see
system.mem_ctrls.wrQLenPdf::28                  90941                       # What write queue length does an incoming req see
system.mem_ctrls.wrQLenPdf::29                  90941                       # What write queue length does an incoming req see
system.mem_ctrls.wrQLenPdf::30                  90941                       # What write queue length does an incoming req see
system.mem_ctrls.wrQLenPdf::31                  90941                       # What write queue length does an incoming req see
system.mem_ctrls.wrQLenPdf::32                  90941                       # What write queue length does an incoming req see
system.mem_ctrls.wrQLenPdf::33                      0                       # What write queue length does an incoming req see
system.mem_ctrls.wrQLenPdf::34                      0                       # What write queue length does an incoming req see
system.mem_ctrls.wrQLenPdf::35                      0                       # What write queue length does an incoming req see
system.mem_ctrls.wrQLenPdf::36                      0                       # What write queue length does an incoming req see
system.mem_ctrls.wrQLenPdf::37                      0                       # What write queue length does an incoming req see
system.mem_ctrls.wrQLenPdf::38                      0                       # What write queue length does an incoming req see
system.mem_ctrls.wrQLenPdf::39                      0                       # What write queue length does an incoming req see
system.mem_ctrls.wrQLenPdf::40                      0                       # What write queue length does an incoming req see
system.mem_ctrls.wrQLenPdf::41                      0                       # What write queue length does an incoming req see
system.mem_ctrls.wrQLenPdf::42                      0                       # What write queue length does an incoming req see
system.mem_ctrls.wrQLenPdf::43                      0                       # What write queue length does an incoming req see
system.mem_ctrls.wrQLenPdf::44                      0                       # What write queue length does an incoming req see
system.mem_ctrls.wrQLenPdf::45                      0                       # What write queue length does an incoming req see
system.mem_ctrls.wrQLenPdf::46                      0                       # What write queue length does an incoming req see
system.mem_ctrls.wrQLenPdf::47                      0                       # What write queue length does an incoming req see
system.mem_ctrls.wrQLenPdf::48                      0                       # What write queue length does an incoming req see
system.mem_ctrls.wrQLenPdf::49                      0                       # What write queue length does an incoming req see
system.mem_ctrls.wrQLenPdf::50                      0                       # What write queue length does an incoming req see
system.mem_ctrls.wrQLenPdf::51                      0                       # What write queue length does an incoming req see
system.mem_ctrls.wrQLenPdf::52                      0                       # What write queue length does an incoming req see
system.mem_ctrls.wrQLenPdf::53                      0                       # What write queue length does an incoming req see
system.mem_ctrls.wrQLenPdf::54                      0                       # What write queue length does an incoming req see
system.mem_ctrls.wrQLenPdf::55                      0                       # What write queue length does an incoming req see
system.mem_ctrls.wrQLenPdf::56                      0                       # What write queue length does an incoming req see
system.mem_ctrls.wrQLenPdf::57                      0                       # What write queue length does an incoming req see
system.mem_ctrls.wrQLenPdf::58                      0                       # What write queue length does an incoming req see
system.mem_ctrls.wrQLenPdf::59                      0                       # What write queue length does an incoming req see
system.mem_ctrls.wrQLenPdf::60                      0                       # What write queue length does an incoming req see
system.mem_ctrls.wrQLenPdf::61                      0                       # What write queue length does an incoming req see
system.mem_ctrls.wrQLenPdf::62                      0                       # What write queue length does an incoming req see
system.mem_ctrls.wrQLenPdf::63                      0                       # What write queue length does an incoming req see
system.mem_ctrls.bytesPerActivate::samples       330512                       # Bytes accessed per row activation
system.mem_ctrls.bytesPerActivate::mean    858.129254                       # Bytes accessed per row activation
system.mem_ctrls.bytesPerActivate::gmean   766.343215                       # Bytes accessed per row activation
system.mem_ctrls.bytesPerActivate::stdev   286.324515                       # Bytes accessed per row activation
system.mem_ctrls.bytesPerActivate::0-127         4599      1.39%      1.39% # Bytes accessed per row activation
system.mem_ctrls.bytesPerActivate::128-255        20007      6.05%      7.44% # Bytes accessed per row activation
system.mem_ctrls.bytesPerActivate::256-383        12039      3.64%     11.09% # Bytes accessed per row activation
system.mem_ctrls.bytesPerActivate::384-511        13947      4.22%     15.31% # Bytes accessed per row activation
system.mem_ctrls.bytesPerActivate::512-639        16845      5.10%     20.40% # Bytes accessed per row activation
system.mem_ctrls.bytesPerActivate::640-767         9448      2.86%     23.26% # Bytes accessed per row activation
system.mem_ctrls.bytesPerActivate::768-895        19668      5.95%     29.21% # Bytes accessed per row activation
system.mem_ctrls.bytesPerActivate::896-1023         8025      2.43%     31.64% # Bytes accessed per row activation
system.mem_ctrls.bytesPerActivate::1024-1151       225934     68.36%    100.00% # Bytes accessed per row activation
system.mem_ctrls.bytesPerActivate::total       330512                       # Bytes accessed per row activation
system.mem_ctrls.rdPerTurnAround::samples        90941                       # Reads before turning the bus around for writes
system.mem_ctrls.rdPerTurnAround::mean      32.730606                       # Reads before turning the bus around for writes
system.mem_ctrls.rdPerTurnAround::gmean     32.005692                       # Reads before turning the bus around for writes
system.mem_ctrls.rdPerTurnAround::stdev    205.007027                       # Reads before turning the bus around for writes
system.mem_ctrls.rdPerTurnAround::0-2047        90939    100.00%    100.00% # Reads before turning the bus around for writes
system.mem_ctrls.rdPerTurnAround::4096-6143            1      0.00%    100.00% # Reads before turning the bus around for writes
system.mem_ctrls.rdPerTurnAround::61440-63487            1      0.00%    100.00% # Reads before turning the bus around for writes
system.mem_ctrls.rdPerTurnAround::total         90941                       # Reads before turning the bus around for writes
system.mem_ctrls.wrPerTurnAround::samples        90940                       # Writes before turning the bus around for reads
system.mem_ctrls.wrPerTurnAround::mean             16                       # Writes before turning the bus around for reads
system.mem_ctrls.wrPerTurnAround::gmean     16.000000                       # Writes before turning the bus around for reads
system.mem_ctrls.wrPerTurnAround::16            90940    100.00%    100.00% # Writes before turning the bus around for reads
system.mem_ctrls.wrPerTurnAround::total         90940                       # Writes before turning the bus around for reads
system.mem_ctrls.bytesReadDRAM              190499456                       # Total number of bytes read from DRAM
[...]
system.cpu.icache.tags.occ_percent::.cpu.inst     0.560477                       # Average percentage of cache occupancy
system.cpu.icache.tags.occ_percent::total     0.560477                       # Average percentage of cache occupancy
system.cpu.icache.tags.occ_task_id_blocks::1024          574                       # Occupied blocks per task id
system.cpu.icache.tags.age_task_id_blocks_1024::4          574                       # Occupied blocks per task id
system.cpu.icache.tags.occ_task_id_percent::1024     0.560547                       # Percentage of cache occupancy per task id
system.cpu.icache.tags.tag_accesses          19064986                       # Number of tag accesses
system.cpu.icache.tags.data_accesses         19064986                       # Number of data accesses
system.cpu.dtb.walker.pwrStateResidencyTicks::UNDEFINED 280387436500                       # Cumulative time (in ticks) in various power states
system.cpu.dtb.stage2_mmu.stage2_tlb.walker.pwrStateResidencyTicks::UNDEFINED 280387436500                       # Cumulative time (in ticks) in various power states
system.cpu.dcache.pwrStateResidencyTicks::UNDEFINED 280387436500                       # Cumulative time (in ticks) in various power states
system.cpu.dcache.demand_hits::.cpu.data     42855263                       # number of demand (read+write) hits
system.cpu.dcache.demand_hits::total         42855263                       # number of demand (read+write) hits
system.cpu.dcache.overall_hits::.cpu.data     42855294                       # number of overall hits
system.cpu.dcache.overall_hits::total        42855294                       # number of overall hits
system.cpu.dcache.demand_misses::.cpu.data      5951375                       # number of demand (read+write) misses
system.cpu.dcache.demand_misses::total        5951375                       # number of demand (read+write) misses
system.cpu.dcache.overall_misses::.cpu.data      5951401                       # number of overall misses
system.cpu.dcache.overall_misses::total       5951401                       # number of overall misses
system.cpu.dcache.demand_miss_latency::.cpu.data 455304970000                       # number of demand (read+write) miss cycles
system.cpu.dcache.demand_miss_latency::total 455304970000                       # number of demand (read+write) miss cycles
system.cpu.dcache.overall_miss_latency::.cpu.data 455304970000                       # number of overall miss cycles
system.cpu.dcache.overall_miss_latency::total 455304970000                       # number of overall miss cycles
system.cpu.dcache.demand_accesses::.cpu.data     48806638                       # number of demand (read+write) accesses
system.cpu.dcache.demand_accesses::total     48806638                       # number of demand (read+write) accesses
system.cpu.dcache.overall_accesses::.cpu.data     48806695                       # number of overall (read+write) accesses
system.cpu.dcache.overall_accesses::total     48806695                       # number of overall (read+write) accesses
system.cpu.dcache.demand_miss_rate::.cpu.data     0.121938                       # miss rate for demand accesses
system.cpu.dcache.demand_miss_rate::total     0.121938                       # miss rate for demand accesses
system.cpu.dcache.overall_miss_rate::.cpu.data     0.121938                       # miss rate for overall accesses
system.cpu.dcache.overall_miss_rate::total     0.121938                       # miss rate for overall accesses
system.cpu.dcache.demand_avg_miss_latency::.cpu.data 76504.164164                       # average overall miss latency
system.cpu.dcache.demand_avg_miss_latency::total 76504.164164                       # average overall miss latency
system.cpu.dcache.overall_avg_miss_latency::.cpu.data 76503.829939                       # average overall miss latency
system.cpu.dcache.overall_avg_miss_latency::total 76503.829939                       # average overall miss latency
system.cpu.dcache.blocked_cycles::no_mshrs            0                       # number of cycles access was blocked
system.cpu.dcache.blocked_cycles::no_targets            0                       # number of cycles access was blocked
system.cpu.dcache.blocked::no_mshrs                 0                       # number of cycles access was blocked
system.cpu.dcache.blocked::no_targets               0                       # number of cycles access was blocked
system.cpu.dcache.avg_blocked_cycles::no_mshrs          nan                       # average number of cycles each access was blocked
system.cpu.dcache.avg_blocked_cycles::no_targets          nan                       # average number of cycles each access was blocked
system.cpu.dcache.writebacks::.writebacks      2973605                       # number of writebacks
system.cpu.dcache.writebacks::total           2973605                       # number of writebacks
system.cpu.dcache.demand_mshr_hits::.cpu.data      2975595                       # number of demand (read+write) MSHR hits
system.cpu.dcache.demand_mshr_hits::total      2975595                       # number of demand (read+write) MSHR hits
system.cpu.dcache.overall_mshr_hits::.cpu.data      2975595                       # number of overall MSHR hits
system.cpu.dcache.overall_mshr_hits::total      2975595                       # number of overall MSHR hits
system.cpu.dcache.demand_mshr_misses::.cpu.data      2975780                       # number of demand (read+write) MSHR misses
system.cpu.dcache.demand_mshr_misses::total      2975780                       # number of demand (read+write) MSHR misses
system.cpu.dcache.overall_mshr_misses::.cpu.data      2975806                       # number of overall MSHR misses
system.cpu.dcache.overall_mshr_misses::total      2975806                       # number of overall MSHR misses
system.cpu.dcache.demand_mshr_miss_latency::.cpu.data 233313598500                       # number of demand (read+write) MSHR miss cycles
system.cpu.dcache.demand_mshr_miss_latency::total 233313598500                       # number of demand (read+write) MSHR miss cycles
system.cpu.dcache.overall_mshr_miss_latency::.cpu.data 233315899500                       # number of overall MSHR miss cycles
system.cpu.dcache.overall_mshr_miss_latency::total 233315899500                       # number of overall MSHR miss cycles
system.cpu.dcache.demand_mshr_miss_rate::.cpu.data     0.060971                       # mshr miss rate for demand accesses
system.cpu.dcache.demand_mshr_miss_rate::total     0.060971                       # mshr miss rate for demand accesses
system.cpu.dcache.overall_mshr_miss_rate::.cpu.data     0.060971                       # mshr miss rate for overall accesses
system.cpu.dcache.overall_mshr_miss_rate::total     0.060971                       # mshr miss rate for overall accesses
system.cpu.dcache.demand_avg_mshr_miss_latency::.cpu.data 78404.182601                       # average overall mshr miss latency
system.cpu.dcache.demand_avg_mshr_miss_latency::total 78404.182601                       # average overall mshr miss latency
system.cpu.dcache.overall_avg_mshr_miss_latency::.cpu.data 78404.270809                       # average overall mshr miss latency
system.cpu.dcache.overall_avg_mshr_miss_latency::total 78404.270809                       # average overall mshr miss latency
system.cpu.dcache.replacements                2973759                       # number of replacements
system.cpu.dcache.ReadReq_hits::.cpu.data     35710690                       # number of ReadReq hits
system.cpu.dcache.ReadReq_hits::total        35710690                       # number of ReadReq hits
system.cpu.dcache.ReadReq_misses::.cpu.data          161                       # number of ReadReq misses
system.cpu.dcache.ReadReq_misses::total           161                       # number of ReadReq misses
system.cpu.dcache.ReadReq_miss_latency::.cpu.data     12932000                       # number of ReadReq miss cycles
system.cpu.dcache.ReadReq_miss_latency::total     12932000                       # number of ReadReq miss cycles
system.cpu.dcache.ReadReq_accesses::.cpu.data     35710851                       # number of ReadReq accesses(hits+misses)
system.cpu.dcache.ReadReq_accesses::total     35710851                       # number of ReadReq accesses(hits+misses)
system.cpu.dcache.ReadReq_miss_rate::.cpu.data     0.000005                       # miss rate for ReadReq accesses
system.cpu.dcache.ReadReq_miss_rate::total     0.000005                       # miss rate for ReadReq accesses
system.cpu.dcache.ReadReq_avg_miss_latency::.cpu.data 80322.981366                       # average ReadReq miss latency
system.cpu.dcache.ReadReq_avg_miss_latency::total 80322.981366                       # average ReadReq miss latency
system.cpu.dcache.ReadReq_mshr_hits::.cpu.data            9                       # number of ReadReq MSHR hits
system.cpu.dcache.ReadReq_mshr_hits::total            9                       # number of ReadReq MSHR hits
system.cpu.dcache.ReadReq_mshr_misses::.cpu.data          152                       # number of ReadReq MSHR misses
system.cpu.dcache.ReadReq_mshr_misses::total          152                       # number of ReadReq MSHR misses
system.cpu.dcache.ReadReq_mshr_miss_latency::.cpu.data     12103000                       # number of ReadReq MSHR miss cycles
system.cpu.dcache.ReadReq_mshr_miss_latency::total     12103000                       # number of ReadReq MSHR miss cycles
system.cpu.dcache.ReadReq_mshr_miss_rate::.cpu.data     0.000004                       # mshr miss rate for ReadReq accesses
system.cpu.dcache.ReadReq_mshr_miss_rate::total     0.000004                       # mshr miss rate for ReadReq accesses
system.cpu.dcache.ReadReq_avg_mshr_miss_latency::.cpu.data        79625                       # average ReadReq mshr miss latency
system.cpu.dcache.ReadReq_avg_mshr_miss_latency::total        79625                       # average ReadReq mshr miss latency
system.cpu.dcache.WriteReq_hits::.cpu.data      7144573                       # number of WriteReq hits
system.cpu.dcache.WriteReq_hits::total        7144573                       # number of WriteReq hits
system.cpu.dcache.WriteReq_misses::.cpu.data      5951214                       # number of WriteReq misses
system.cpu.dcache.WriteReq_misses::total      5951214                       # number of WriteReq misses
system.cpu.dcache.WriteReq_miss_latency::.cpu.data 455292038000                       # number of WriteReq miss cycles
system.cpu.dcache.WriteReq_miss_latency::total 455292038000                       # number of WriteReq miss cycles
system.cpu.dcache.WriteReq_accesses::.cpu.data     13095787                       # number of WriteReq accesses(hits+misses)
system.cpu.dcache.WriteReq_accesses::total     13095787                       # number of WriteReq accesses(hits+misses)
system.cpu.dcache.WriteReq_miss_rate::.cpu.data     0.454437                       # miss rate for WriteReq accesses
system.cpu.dcache.WriteReq_miss_rate::total     0.454437                       # miss rate for WriteReq accesses
system.cpu.dcache.WriteReq_avg_miss_latency::.cpu.data 76504.060852                       # average WriteReq miss latency
system.cpu.dcache.WriteReq_avg_miss_latency::total 76504.060852                       # average WriteReq miss latency
system.cpu.dcache.WriteReq_mshr_hits::.cpu.data      2975586                       # number of WriteReq MSHR hits
system.cpu.dcache.WriteReq_mshr_hits::total      2975586                       # number of WriteReq MSHR hits
system.cpu.dcache.WriteReq_mshr_misses::.cpu.data      2975628                       # number of WriteReq MSHR misses
system.cpu.dcache.WriteReq_mshr_misses::total      2975628                       # number of WriteReq MSHR misses
system.cpu.dcache.WriteReq_mshr_miss_latency::.cpu.data 233301495500                       # number of WriteReq MSHR miss cycles
system.cpu.dcache.WriteReq_mshr_miss_latency::total 233301495500                       # number of WriteReq MSHR miss cycles
system.cpu.dcache.WriteReq_mshr_miss_rate::.cpu.data     0.227220                       # mshr miss rate for WriteReq accesses
system.cpu.dcache.WriteReq_mshr_miss_rate::total     0.227220                       # mshr miss rate for WriteReq accesses
system.cpu.dcache.WriteReq_avg_mshr_miss_latency::.cpu.data 78404.120239                       # average WriteReq mshr miss latency
system.cpu.dcache.WriteReq_avg_mshr_miss_latency::total 78404.120239                       # average WriteReq mshr miss latency
system.cpu.dcache.SoftPFReq_hits::.cpu.data           31                       # number of SoftPFReq hits
system.cpu.dcache.SoftPFReq_hits::total            31                       # number of SoftPFReq hits
system.cpu.dcache.SoftPFReq_misses::.cpu.data           26                       # number of SoftPFReq misses
system.cpu.dcache.SoftPFReq_misses::total           26                       # number of SoftPFReq misses
system.cpu.dcache.SoftPFReq_accesses::.cpu.data           57                       # number of SoftPFReq accesses(hits+misses)
system.cpu.dcache.SoftPFReq_accesses::total           57                       # number of SoftPFReq accesses(hits+misses)
system.cpu.dcache.SoftPFReq_miss_rate::.cpu.data     0.456140                       # miss rate for SoftPFReq accesses
system.cpu.dcache.SoftPFReq_miss_rate::total     0.456140                       # miss rate for SoftPFReq accesses
system.cpu.dcache.SoftPFReq_mshr_misses::.cpu.data           26                       # number of SoftPFReq MSHR misses
system.cpu.dcache.SoftPFReq_mshr_misses::total           26                       # number of SoftPFReq MSHR misses
system.cpu.dcache.SoftPFReq_mshr_miss_latency::.cpu.data      2301000                       # number of SoftPFReq MSHR miss cycles
system.cpu.dcache.SoftPFReq_mshr_miss_latency::total      2301000                       # number of SoftPFReq MSHR miss cycles
system.cpu.dcache.SoftPFReq_mshr_miss_rate::.cpu.data     0.456140                       # mshr miss rate for SoftPFReq accesses
system.cpu.dcache.SoftPFReq_mshr_miss_rate::total     0.456140                       # mshr miss rate for SoftPFReq accesses
system.cpu.dcache.SoftPFReq_avg_mshr_miss_latency::.cpu.data        88500                       # average SoftPFReq mshr miss latency
system.cpu.dcache.SoftPFReq_avg_mshr_miss_latency::total        88500                       # average SoftPFReq mshr miss latency
system.cpu.dcache.LoadLockedReq_hits::.cpu.data           13                       # number of LoadLockedReq hits
system.cpu.dcache.LoadLockedReq_hits::total           13                       # number of LoadLockedReq hits
system.cpu.dcache.LoadLockedReq_misses::.cpu.data            1                       # number of LoadLockedReq misses
system.cpu.dcache.LoadLockedReq_misses::total            1                       # number of LoadLockedReq misses
system.cpu.dcache.LoadLockedReq_miss_latency::.cpu.data        72500                       # number of LoadLockedReq miss cycles
system.cpu.dcache.LoadLockedReq_miss_latency::total        72500                       # number of LoadLockedReq miss cycles
system.cpu.dcache.LoadLockedReq_accesses::.cpu.data           14                       # number of LoadLockedReq accesses(hits+misses)
system.cpu.dcache.LoadLockedReq_accesses::total           14                       # number of LoadLockedReq accesses(hits+misses)
system.cpu.dcache.LoadLockedReq_miss_rate::.cpu.data     0.071429                       # miss rate for LoadLockedReq accesses
system.cpu.dcache.LoadLockedReq_miss_rate::total     0.071429                       # miss rate for LoadLockedReq accesses
system.cpu.dcache.LoadLockedReq_avg_miss_latency::.cpu.data        72500                       # average LoadLockedReq miss latency
system.cpu.dcache.LoadLockedReq_avg_miss_latency::total        72500                       # average LoadLockedReq miss latency
system.cpu.dcache.LoadLockedReq_mshr_misses::.cpu.data            1                       # number of LoadLockedReq MSHR misses
system.cpu.dcache.LoadLockedReq_mshr_misses::total            1                       # number of LoadLockedReq MSHR misses
system.cpu.dcache.LoadLockedReq_mshr_miss_latency::.cpu.data        71500                       # number of LoadLockedReq MSHR miss cycles
system.cpu.dcache.LoadLockedReq_mshr_miss_latency::total        71500                       # number of LoadLockedReq MSHR miss cycles
system.cpu.dcache.LoadLockedReq_mshr_miss_rate::.cpu.data     0.071429                       # mshr miss rate for LoadLockedReq accesses
system.cpu.dcache.LoadLockedReq_mshr_miss_rate::total     0.071429                       # mshr miss rate for LoadLockedReq accesses
system.cpu.dcache.LoadLockedReq_avg_mshr_miss_latency::.cpu.data        71500                       # average LoadLockedReq mshr miss latency
system.cpu.dcache.LoadLockedReq_avg_mshr_miss_latency::total        71500                       # average LoadLockedReq mshr miss latency
system.cpu.dcache.StoreCondReq_hits::.cpu.data           14                       # number of StoreCondReq hits
system.cpu.dcache.StoreCondReq_hits::total           14                       # number of StoreCondReq hits
system.cpu.dcache.StoreCondReq_accesses::.cpu.data           14                       # number of StoreCondReq accesses(hits+misses)
system.cpu.dcache.StoreCondReq_accesses::total           14                       # number of StoreCondReq accesses(hits+misses)
system.cpu.dcache.tags.pwrStateResidencyTicks::UNDEFINED 280387436500                       # Cumulative time (in ticks) in various power states
system.cpu.dcache.tags.tagsinuse          2046.902683                       # Cycle average of tags in use
system.cpu.dcache.tags.total_refs            45831128                       # Total number of references to valid blocks.
system.cpu.dcache.tags.sampled_refs           2975807                       # Sample count of references to valid blocks.
system.cpu.dcache.tags.avg_refs             15.401243                       # Average number of references to valid blocks.
system.cpu.dcache.tags.warmup_cycle            176500                       # Cycle when the warmup percentage was hit.
system.cpu.dcache.tags.occ_blocks::.cpu.data  2046.902683                       # Average occupied blocks per requestor
system.cpu.dcache.tags.occ_percent::.cpu.data     0.999464                       # Average percentage of cache occupancy
system.cpu.dcache.tags.occ_percent::total     0.999464                       # Average percentage of cache occupancy
system.cpu.dcache.tags.occ_task_id_blocks::1024         2048                       # Occupied blocks per task id
system.cpu.dcache.tags.age_task_id_blocks_1024::0          108                       # Occupied blocks per task id
system.cpu.dcache.tags.age_task_id_blocks_1024::1          954                       # Occupied blocks per task id
system.cpu.dcache.tags.age_task_id_blocks_1024::2          984                       # Occupied blocks per task id
system.cpu.dcache.tags.age_task_id_blocks_1024::4            2                       # Occupied blocks per task id
system.cpu.dcache.tags.occ_task_id_percent::1024            1                       # Percentage of cache occupancy per task id
system.cpu.dcache.tags.tag_accesses         100589253                       # Number of tag accesses
system.cpu.dcache.tags.data_accesses        100589253                       # Number of data accesses
system.cpu.itb.walker.pwrStateResidencyTicks::UNDEFINED 280387436500                       # Cumulative time (in ticks) in various power states
system.cpu.itb.stage2_mmu.stage2_tlb.walker.pwrStateResidencyTicks::UNDEFINED 280387436500                       # Cumulative time (in ticks) in various power states

---------- End Simulation Statistics   ----------
