
---------- Begin Simulation Statistics ----------
final_tick                                65473052000                       # Number of ticks from beginning of simulation (restored from checkpoints and never reset)
host_inst_rate                                 150233                       # Simulator instruction rate (inst/s)
host_mem_usage                                 681880                       # Number of bytes of host memory used
host_op_rate                                   164404                       # Simulator op (including micro ops) rate (op/s)
host_seconds                                   665.63                       # Real time elapsed on the host
host_tick_rate                               98362094                       # Simulator tick rate (ticks/s)
sim_freq                                 1000000000000                       # Frequency of simulated ticks
sim_insts                                   100000000                       # Number of instructions simulated
sim_ops                                     109432473                       # Number of ops (including micro ops) simulated
sim_seconds                                  0.065473                       # Number of seconds simulated
sim_ticks                                 65473052000                       # Number of ticks simulated
system.cpu.branchPred.BTBCorrect                    0                       # Number of correct BTB predictions (this stat may not work properly.
system.cpu.branchPred.BTBHitPct             88.089997                       # BTB Hit Percentage
system.cpu.branchPred.BTBHits                 8691086                       # Number of BTB hits
system.cpu.branchPred.BTBLookups              9866144                       # Number of BTB lookups
system.cpu.branchPred.RASInCorrect                345                       # Number of incorrect RAS predictions.
system.cpu.branchPred.condIncorrect            142552                       # Number of conditional branches incorrect
system.cpu.branchPred.condPredicted          16333320                       # Number of conditional branches predicted
system.cpu.branchPred.indirectHits             300070                       # Number of indirect target hits.
system.cpu.branchPred.indirectLookups          434146                       # Number of indirect predictor lookups.
system.cpu.branchPred.indirectMisses           134076                       # Number of indirect misses.
system.cpu.branchPred.lookups                20395972                       # Number of BP lookups
system.cpu.branchPred.usedRAS                 1050806                       # Number of times the RAS was used to get a target.
system.cpu.branchPredindirectMispredicted         1087                       # Number of mispredicted indirect branches.
system.cpu.committedInsts                   100000000                       # Number of instructions committed
system.cpu.committedOps                     109432473                       # Number of ops (including micro ops) committed
system.cpu.cpi                               1.309461                       # CPI: cycles per instruction
system.cpu.discardedOps                        690700                       # Number of ops (including micro ops) which were discarded before commit
system.cpu.dtb.accesses                             0                       # DTB accesses
system.cpu.dtb.align_faults                         0                       # Number of TLB faults due to alignment restrictions
system.cpu.dtb.domain_faults                        0                       # Number of TLB faults due to domain restrictions
system.cpu.dtb.flush_entries                        0                       # Number of entries that have been flushed from TLB
system.cpu.dtb.flush_tlb                            0                       # Number of times complete TLB was flushed
system.cpu.dtb.flush_tlb_asid                       0                       # Number of times TLB was flushed by ASID
system.cpu.dtb.flush_tlb_mva                        0                       # Number of times TLB was flushed by MVA
system.cpu.dtb.flush_tlb_mva_asid                   0                       # Number of times TLB was flushed by MVA & ASID
system.cpu.dtb.hits                                 0                       # DTB hits
system.cpu.dtb.inst_accesses                        0                       # ITB inst accesses
system.cpu.dtb.inst_hits                            0                       # ITB inst hits
system.cpu.dtb.inst_misses                          0                       # ITB inst misses
system.cpu.dtb.misses                               0                       # DTB misses
system.cpu.dtb.perms_faults                         0                       # Number of TLB faults due to permissions restrictions
system.cpu.dtb.prefetch_faults                      0                       # Number of TLB faults due to prefetch
system.cpu.dtb.read_accesses                        0                       # DTB read accesses
system.cpu.dtb.read_hits                            0                       # DTB read hits
system.cpu.dtb.read_misses                          0                       # DTB read misses
system.cpu.dtb.stage2_mmu.stage2_tlb.accesses            0                       # DTB accesses
system.cpu.dtb.stage2_mmu.stage2_tlb.align_faults            0                       # Number of TLB faults due to alignment restrictions
system.cpu.dtb.stage2_mmu.stage2_tlb.domain_faults            0                       # Number of TLB faults due to domain restrictions
system.cpu.dtb.stage2_mmu.stage2_tlb.flush_entries            0                       # Number of entries that have been flushed from TLB
system.cpu.dtb.stage2_mmu.stage2_tlb.flush_tlb            0                       # Number of times complete TLB was flushed
system.cpu.dtb.stage2_mmu.stage2_tlb.flush_tlb_asid            0                       # Number of times TLB was flushed by ASID
system.cpu.dtb.stage2_mmu.stage2_tlb.flush_tlb_mva            0                       # Number of times TLB was flushed by MVA
system.cpu.dtb.stage2_mmu.stage2_tlb.flush_tlb_mva_asid            0                       # Number of times TLB was flushed by MVA & ASID
system.cpu.dtb.stage2_mmu.stage2_tlb.hits            0                       # DTB hits
system.cpu.dtb.stage2_mmu.stage2_tlb.inst_accesses            0                       # ITB inst accesses
system.cpu.dtb.stage2_mmu.stage2_tlb.inst_hits            0                       # ITB inst hits
system.cpu.dtb.stage2_mmu.stage2_tlb.inst_misses            0                       # ITB inst misses
system.cpu.dtb.stage2_mmu.stage2_tlb.misses            0                       # DTB misses
system.cpu.dtb.stage2_mmu.stage2_tlb.perms_faults            0                       # Number of TLB faults due to permissions restrictions
system.cpu.dtb.stage2_mmu.stage2_tlb.prefetch_faults            0                       # Number of TLB faults due to prefetch
system.cpu.dtb.stage2_mmu.stage2_tlb.read_accesses            0                       # DTB read accesses
system.cpu.dtb.stage2_mmu.stage2_tlb.read_hits            0                       # DTB read hits
system.cpu.dtb.stage2_mmu.stage2_tlb.read_misses            0                       # DTB read misses
system.cpu.dtb.stage2_mmu.stage2_tlb.walker.walkRequestOrigin_Requested::Data            0                       # Table walker requests started/completed, data/inst
system.cpu.dtb.stage2_mmu.stage2_tlb.walker.walkRequestOrigin_Requested::Inst            0                       # Table walker requests started/completed, data/inst
system.cpu.dtb.stage2_mmu.stage2_tlb.walker.walkRequestOrigin_Requested::total            0                       # Table walker requests started/completed, data/inst
system.cpu.dtb.stage2_mmu.stage2_tlb.walker.walkRequestOrigin_Completed::Data            0                       # Table walker requests started/completed, data/inst
system.cpu.dtb.stage2_mmu.stage2_tlb.walker.walkRequestOrigin_Completed::Inst            0                       # Table walker requests started/completed, data/inst
system.cpu.dtb.stage2_mmu.stage2_tlb.walker.walkRequestOrigin_Completed::total            0                       # Table walker requests started/completed, data/inst
system.cpu.dtb.stage2_mmu.stage2_tlb.walker.walkRequestOrigin::total            0                       # Table walker requests started/completed, data/inst
system.cpu.dtb.stage2_mmu.stage2_tlb.walker.walks            0                       # Table walker walks requested
system.cpu.dtb.stage2_mmu.stage2_tlb.write_accesses            0                       # DTB write accesses
system.cpu.dtb.stage2_mmu.stage2_tlb.write_hits            0                       # DTB write hits
system.cpu.dtb.stage2_mmu.stage2_tlb.write_misses            0                       # DTB write misses
system.cpu.dtb.walker.walkRequestOrigin_Requested::Data            0                       # Table walker requests started/completed, data/inst
system.cpu.dtb.walker.walkRequestOrigin_Requested::Inst            0                       # Table walker requests started/completed, data/inst
system.cpu.dtb.walker.walkRequestOrigin_Requested::total            0                       # Table walker requests started/completed, data/inst
system.cpu.dtb.walker.walkRequestOrigin_Completed::Data            0                       # Table walker requests started/completed, data/inst
system.cpu.dtb.walker.walkRequestOrigin_Completed::Inst            0                       # Table walker requests started/completed, data/inst
system.cpu.dtb.walker.walkRequestOrigin_Completed::total            0                       # Table walker requests started/completed, data/inst
system.cpu.dtb.walker.walkRequestOrigin::total            0                       # Table walker requests started/completed, data/inst
system.cpu.dtb.walker.walks                         0                       # Table walker walks requested
system.cpu.dtb.write_accesses                       0                       # DTB write accesses
system.cpu.dtb.write_hits                           0                       # DTB write hits
system.cpu.dtb.write_misses                         0                       # DTB write misses
system.cpu.fetch2.amo_instructions                  0                       # Number of memory atomic instructions successfully decoded
system.cpu.fetch2.fp_instructions                   0                       # Number of floating point instructions successfully decoded
system.cpu.fetch2.int_instructions           49584916                       # Number of integer instructions successfully decoded
system.cpu.fetch2.load_instructions          17137954                       # Number of memory load instructions successfully decoded
system.cpu.fetch2.store_instructions          9893189                       # Number of memory store instructions successfully decoded
system.cpu.fetch2.vec_instructions                  0                       # Number of SIMD instructions successfully decoded
system.cpu.idleCycles                        14953777                       # Total number of cycles that the object has spent stopped
system.cpu.ipc                               0.763673                       # IPC: instructions per cycle
system.cpu.itb.accesses                             0                       # DTB accesses
system.cpu.itb.align_faults                         0                       # Number of TLB faults due to alignment restrictions
system.cpu.itb.domain_faults                        0                       # Number of TLB faults due to domain restrictions
system.cpu.itb.flush_entries                        0                       # Number of entries that have been flushed from TLB
system.cpu.itb.flush_tlb                            0                       # Number of times complete TLB was flushed
system.cpu.itb.flush_tlb_asid                       0                       # Number of times TLB was flushed by ASID
system.cpu.itb.flush_tlb_mva                        0                       # Number of times TLB was flushed by MVA
system.cpu.itb.flush_tlb_mva_asid                   0                       # Number of times TLB was flushed by MVA & ASID
system.cpu.itb.hits                                 0                       # DTB hits
system.cpu.itb.inst_accesses                        0                       # ITB inst accesses
system.cpu.itb.inst_hits                            0                       # ITB inst hits
system.cpu.itb.inst_misses                          0                       # ITB inst misses
system.cpu.itb.misses                               0                       # DTB misses
system.cpu.itb.perms_faults                         0                       # Number of TLB faults due to permissions restrictions
system.cpu.itb.prefetch_faults                      0                       # Number of TLB faults due to prefetch
system.cpu.itb.read_accesses                        0                       # DTB read accesses
system.cpu.itb.read_hits                            0                       # DTB read hits
system.cpu.itb.read_misses                          0                       # DTB read misses
system.cpu.itb.stage2_mmu.stage2_tlb.accesses            0                       # DTB accesses
system.cpu.itb.stage2_mmu.stage2_tlb.align_faults            0                       # Number of TLB faults due to alignment restrictions
system.cpu.itb.stage2_mmu.stage2_tlb.domain_faults            0                       # Number of TLB faults due to domain restrictions
system.cpu.itb.stage2_mmu.stage2_tlb.flush_entries            0                       # Number of entries that have been flushed from TLB
system.cpu.itb.stage2_mmu.stage2_tlb.flush_tlb            0                       # Number of times complete TLB was flushed
system.cpu.itb.stage2_mmu.stage2_tlb.flush_tlb_asid            0                       # Number of times TLB was flushed by ASID
system.cpu.itb.stage2_mmu.stage2_tlb.flush_tlb_mva            0                       # Number of times TLB was flushed by MVA
system.cpu.itb.stage2_mmu.stage2_tlb.flush_tlb_mva_asid            0                       # Number of times TLB was flushed by MVA & ASID
system.cpu.itb.stage2_mmu.stage2_tlb.hits            0                       # DTB hits
system.cpu.itb.stage2_mmu.stage2_tlb.inst_accesses            0                       # ITB inst accesses
system.cpu.itb.stage2_mmu.stage2_tlb.inst_hits            0                       # ITB inst hits
system.cpu.itb.stage2_mmu.stage2_tlb.inst_misses            0                       # ITB inst misses
system.cpu.itb.stage2_mmu.stage2_tlb.misses            0                       # DTB misses
system.cpu.itb.stage2_mmu.stage2_tlb.perms_faults            0                       # Number of TLB faults due to permissions restrictions
system.cpu.itb.stage2_mmu.stage2_tlb.prefetch_faults            0                       # Number of TLB faults due to prefetch
system.cpu.itb.stage2_mmu.stage2_tlb.read_accesses            0                       # DTB read accesses
system.cpu.itb.stage2_mmu.stage2_tlb.read_hits            0                       # DTB read hits
system.cpu.itb.stage2_mmu.stage2_tlb.read_misses            0                       # DTB read misses
system.cpu.itb.stage2_mmu.stage2_tlb.walker.walkRequestOrigin_Requested::Data            0                       # Table walker requests started/completed, data/inst
system.cpu.itb.stage2_mmu.stage2_tlb.walker.walkRequestOrigin_Requested::Inst            0                       # Table walker requests started/completed, data/inst
system.cpu.itb.stage2_mmu.stage2_tlb.walker.walkRequestOrigin_Requested::total            0                       # Table walker requests started/completed, data/inst
system.cpu.itb.stage2_mmu.stage2_tlb.walker.walkRequestOrigin_Completed::Data            0                       # Table walker requests started/completed, data/inst
system.cpu.itb.stage2_mmu.stage2_tlb.walker.walkRequestOrigin_Completed::Inst            0                       # Table walker requests started/completed, data/inst
system.cpu.itb.stage2_mmu.stage2_tlb.walker.walkRequestOrigin_Completed::total            0                       # Table walker requests started/completed, data/inst
system.cpu.itb.stage2_mmu.stage2_tlb.walker.walkRequestOrigin::total            0                       # Table walker requests started/completed, data/inst
system.cpu.itb.stage2_mmu.stage2_tlb.walker.walks            0                       # Table walker walks requested
system.cpu.itb.stage2_mmu.stage2_tlb.write_accesses            0                       # DTB write accesses
system.cpu.itb.stage2_mmu.stage2_tlb.write_hits            0                       # DTB write hits
system.cpu.itb.stage2_mmu.stage2_tlb.write_misses            0                       # DTB write misses
system.cpu.itb.walker.walkRequestOrigin_Requested::Data            0                       # Table walker requests started/completed, data/inst
system.cpu.itb.walker.walkRequestOrigin_Requested::Inst            0                       # Table walker requests started/completed, data/inst
system.cpu.itb.walker.walkRequestOrigin_Requested::total            0                       # Table walker requests started/completed, data/inst
system.cpu.itb.walker.walkRequestOrigin_Completed::Data            0                       # Table walker requests started/completed, data/inst
system.cpu.itb.walker.walkRequestOrigin_Completed::Inst            0                       # Table walker requests started/completed, data/inst
system.cpu.itb.walker.walkRequestOrigin_Completed::total            0                       # Table walker requests started/completed, data/inst
system.cpu.itb.walker.walkRequestOrigin::total            0                       # Table walker requests started/completed, data/inst
system.cpu.itb.walker.walks                         0                       # Table walker walks requested
system.cpu.itb.write_accesses                       0                       # DTB write accesses
system.cpu.itb.write_hits                           0                       # DTB write hits
system.cpu.itb.write_misses                         0                       # DTB write misses
system.cpu.numCycles                        130946104                       # number of cpu cycles simulated
system.cpu.numFetchSuspends                         0                       # Number of times Execute suspended instruction fetching
system.cpu.numWorkItemsCompleted                    0                       # number of work items this cpu completed
system.cpu.numWorkItemsStarted                      0                       # number of work items this cpu started
system.cpu.op_class_0::No_OpClass                   0      0.00%      0.00% # Class of committed instruction
system.cpu.op_class_0::IntAlu                72955694     66.67%     66.67% # Class of committed instruction
system.cpu.op_class_0::IntMult                 568360      0.52%     67.19% # Class of committed instruction
system.cpu.op_class_0::IntDiv                       0      0.00%     67.19% # Class of committed instruction
system.cpu.op_class_0::FloatAdd                     0      0.00%     67.19% # Class of committed instruction
system.cpu.op_class_0::FloatCmp                     0      0.00%     67.19% # Class of committed instruction
system.cpu.op_class_0::FloatCvt                     0      0.00%     67.19% # Class of committed instruction
system.cpu.op_class_0::FloatMult                    0      0.00%     67.19% # Class of committed instruction
system.cpu.op_class_0::FloatMultAcc                 0      0.00%     67.19% # Class of committed instruction
system.cpu.op_class_0::FloatDiv                     0      0.00%     67.19% # Class of committed instruction
system.cpu.op_class_0::FloatMisc                    0      0.00%     67.19% # Class of committed instruction
system.cpu.op_class_0::FloatSqrt                    0      0.00%     67.19% # Class of committed instruction
system.cpu.op_class_0::SimdAdd                 241244      0.22%     67.41% # Class of committed instruction
system.cpu.op_class_0::SimdAddAcc                   0      0.00%     67.41% # Class of committed instruction
system.cpu.op_class_0::SimdAlu                 154714      0.14%     67.55% # Class of committed instruction
system.cpu.op_class_0::SimdCmp                 120622      0.11%     67.66% # Class of committed instruction
system.cpu.op_class_0::SimdCvt                      0      0.00%     67.66% # Class of committed instruction
system.cpu.op_class_0::SimdMisc                 44543      0.04%     67.70% # Class of committed instruction
system.cpu.op_class_0::SimdMult                     0      0.00%     67.70% # Class of committed instruction
system.cpu.op_class_0::SimdMultAcc                  0      0.00%     67.70% # Class of committed instruction
system.cpu.op_class_0::SimdShift                    0      0.00%     67.70% # Class of committed instruction
system.cpu.op_class_0::SimdShiftAcc                 0      0.00%     67.70% # Class of committed instruction
system.cpu.op_class_0::SimdDiv                      0      0.00%     67.70% # Class of committed instruction
system.cpu.op_class_0::SimdSqrt                     0      0.00%     67.70% # Class of committed instruction
system.cpu.op_class_0::SimdFloatAdd                 0      0.00%     67.70% # Class of committed instruction
system.cpu.op_class_0::SimdFloatAlu                 0      0.00%     67.70% # Class of committed instruction
system.cpu.op_class_0::SimdFloatCmp                 0      0.00%     67.70% # Class of committed instruction
system.cpu.op_class_0::SimdFloatCvt                 0      0.00%     67.70% # Class of committed instruction
system.cpu.op_class_0::SimdFloatDiv                 0      0.00%     67.70% # Class of committed instruction
system.cpu.op_class_0::SimdFloatMisc           166460      0.15%     67.85% # Class of committed instruction
system.cpu.op_class_0::SimdFloatMult                0      0.00%     67.85% # Class of committed instruction
system.cpu.op_class_0::SimdFloatMultAcc             0      0.00%     67.85% # Class of committed instruction
system.cpu.op_class_0::SimdFloatSqrt                0      0.00%     67.85% # Class of committed instruction
system.cpu.op_class_0::SimdReduceAdd                0      0.00%     67.85% # Class of committed instruction
system.cpu.op_class_0::SimdReduceAlu                0      0.00%     67.85% # Class of committed instruction
system.cpu.op_class_0::SimdReduceCmp                0      0.00%     67.85% # Class of committed instruction
system.cpu.op_class_0::SimdFloatReduceAdd            0      0.00%     67.85% # Class of committed instruction
system.cpu.op_class_0::SimdFloatReduceCmp            0      0.00%     67.85% # Class of committed instruction
system.cpu.op_class_0::SimdAes                      0      0.00%     67.85% # Class of committed instruction
system.cpu.op_class_0::SimdAesMix                   0      0.00%     67.85% # Class of committed instruction
system.cpu.op_class_0::SimdSha1Hash                 0      0.00%     67.85% # Class of committed instruction
system.cpu.op_class_0::SimdSha1Hash2                0      0.00%     67.85% # Class of committed instruction
system.cpu.op_class_0::SimdSha256Hash               0      0.00%     67.85% # Class of committed instruction
system.cpu.op_class_0::SimdSha256Hash2              0      0.00%     67.85% # Class of committed instruction
system.cpu.op_class_0::SimdShaSigma2                0      0.00%     67.85% # Class of committed instruction
system.cpu.op_class_0::SimdShaSigma3                0      0.00%     67.85% # Class of committed instruction
system.cpu.op_class_0::SimdPredAlu                  0      0.00%     67.85% # Class of committed instruction
system.cpu.op_class_0::MemRead               20646487     18.87%     86.72% # Class of committed instruction
system.cpu.op_class_0::MemWrite              14534349     13.28%    100.00% # Class of committed instruction
system.cpu.op_class_0::FloatMemRead                 0      0.00%    100.00% # Class of committed instruction
system.cpu.op_class_0::FloatMemWrite                0      0.00%    100.00% # Class of committed instruction
system.cpu.op_class_0::IprAccess                    0      0.00%    100.00% # Class of committed instruction
system.cpu.op_class_0::InstPrefetch                 0      0.00%    100.00% # Class of committed instruction
system.cpu.op_class_0::total                109432473                       # Class of committed instruction
system.cpu.tickCycles                       115992327                       # Number of cycles that the object actually ticked
system.cpu.workload.numSyscalls                   137                       # Number of system calls
system.membus.snoop_filter.hit_multi_requests            0                       # Number of requests hitting in the snoop filter with multiple (>1) holders of the requested data.
system.membus.snoop_filter.hit_multi_snoops            0                       # Number of snoops hitting in the snoop filter with multiple (>1) holders of the requested data.
system.membus.snoop_filter.hit_single_requests        44183                       # Number of requests hitting in the snoop filter with a single holder of the requested data.
system.membus.snoop_filter.hit_single_snoops            0                       # Number of snoops hitting in the snoop filter with a single holder of the requested data.
system.membus.snoop_filter.tot_requests         92886                       # Total number of requests made to the snoop filter.
system.membus.snoop_filter.tot_snoops               0                       # Total number of snoops made to the snoop filter.
system.tol2bus.snoop_filter.hit_multi_requests           29                       # Number of requests hitting in the snoop filter with multiple (>1) holders of the requested data.
system.tol2bus.snoop_filter.hit_multi_snoops            8                       # Number of snoops hitting in the snoop filter with multiple (>1) holders of the requested data.
system.tol2bus.snoop_filter.hit_single_requests       722711                       # Number of requests hitting in the snoop filter with a single holder of the requested data.
system.tol2bus.snoop_filter.hit_single_snoops          813                       # Number of snoops hitting in the snoop filter with a single holder of the requested data.
system.tol2bus.snoop_filter.tot_requests      1446836                       # Total number of requests made to the snoop filter.
system.tol2bus.snoop_filter.tot_snoops            821                       # Total number of snoops made to the snoop filter.
system.membus.pwrStateResidencyTicks::UNDEFINED  65473052000                       # Cumulative time (in ticks) in various power states
system.membus.trans_dist::ReadResp               9896                       # Transaction distribution
system.membus.trans_dist::WritebackDirty        43626                       # Transaction distribution
system.membus.trans_dist::CleanEvict              553                       # Transaction distribution
system.membus.trans_dist::ReadExReq             38811                       # Transaction distribution
system.membus.trans_dist::ReadExResp            38811                       # Transaction distribution
system.membus.trans_dist::ReadSharedReq          9896                       # Transaction distribution
system.membus.pkt_count_system.l2.mem_side::system.mem_ctrls.port       141593                       # Packet count per connected master and slave (bytes)
system.membus.pkt_count::total                 141593                       # Packet count per connected master and slave (bytes)
system.membus.pkt_size_system.l2.mem_side::system.mem_ctrls.port      5909312                       # Cumulative packet size per connected master and slave (bytes)
system.membus.pkt_size::total                 5909312                       # Cumulative packet size per connected master and slave (bytes)
system.membus.snoops                                0                       # Total snoops (count)
system.membus.snoopTraffic                          0                       # Total snoop traffic (bytes)
system.membus.snoop_fanout::samples             48707                       # Request fanout histogram
system.membus.snoop_fanout::mean                    0                       # Request fanout histogram
system.membus.snoop_fanout::stdev                   0                       # Request fanout histogram
system.membus.snoop_fanout::underflows              0      0.00%      0.00% # Request fanout histogram
system.membus.snoop_fanout::0                   48707    100.00%    100.00% # Request fanout histogram
system.membus.snoop_fanout::1                       0      0.00%    100.00% # Request fanout histogram
system.membus.snoop_fanout::overflows               0      0.00%    100.00% # Request fanout histogram
system.membus.snoop_fanout::min_value               0                       # Request fanout histogram
system.membus.snoop_fanout::max_value               0                       # Request fanout histogram
system.membus.snoop_fanout::total               48707                       # Request fanout histogram
system.membus.respLayer1.occupancy          261652500                       # Layer occupancy (ticks)
system.membus.respLayer1.utilization              0.4                       # Layer utilization (%)
system.membus.reqLayer0.occupancy           278645500                       # Layer occupancy (ticks)
system.membus.reqLayer0.utilization               0.4                       # Layer utilization (%)
system.tol2bus.pwrStateResidencyTicks::UNDEFINED  65473052000                       # Cumulative time (in ticks) in various power states
system.tol2bus.trans_dist::ReadResp            685194                       # Transaction distribution
system.tol2bus.trans_dist::WritebackDirty        94024                       # Transaction distribution
system.tol2bus.trans_dist::WritebackClean       668501                       # Transaction distribution
system.tol2bus.trans_dist::CleanEvict            4844                       # Transaction distribution
system.tol2bus.trans_dist::ReadExReq            38935                       # Transaction distribution
system.tol2bus.trans_dist::ReadExResp           38935                       # Transaction distribution
system.tol2bus.trans_dist::ReadCleanReq        668899                       # Transaction distribution
system.tol2bus.trans_dist::ReadSharedReq        16295                       # Transaction distribution
system.tol2bus.pkt_count_system.cpu.icache.mem_side::system.l2.cpu_side      2006299                       # Packet count per connected master and slave (bytes)
system.tol2bus.pkt_count_system.cpu.dcache.mem_side::system.l2.cpu_side       164666                       # Packet count per connected master and slave (bytes)
system.tol2bus.pkt_count::total               2170965                       # Packet count per connected master and slave (bytes)
system.tol2bus.pkt_size_system.cpu.icache.mem_side::system.l2.cpu_side     85593600                       # Cumulative packet size per connected master and slave (bytes)
system.tol2bus.pkt_size_system.cpu.dcache.mem_side::system.l2.cpu_side      6760192                       # Cumulative packet size per connected master and slave (bytes)
system.tol2bus.pkt_size::total               92353792                       # Cumulative packet size per connected master and slave (bytes)
system.tol2bus.snoops                           44662                       # Total snoops (count)
system.tol2bus.snoopTraffic                   2792064                       # Total snoop traffic (bytes)
system.tol2bus.snoop_fanout::samples           768791                       # Request fanout histogram
system.tol2bus.snoop_fanout::mean            0.001121                       # Request fanout histogram
system.tol2bus.snoop_fanout::stdev           0.033776                       # Request fanout histogram
system.tol2bus.snoop_fanout::underflows             0      0.00%      0.00% # Request fanout histogram
system.tol2bus.snoop_fanout::0                 767937     99.89%     99.89% # Request fanout histogram
system.tol2bus.snoop_fanout::1                    846      0.11%    100.00% # Request fanout histogram
system.tol2bus.snoop_fanout::2                      8      0.00%    100.00% # Request fanout histogram
system.tol2bus.snoop_fanout::overflows              0      0.00%    100.00% # Request fanout histogram
system.tol2bus.snoop_fanout::min_value              0                       # Request fanout histogram
system.tol2bus.snoop_fanout::max_value              2                       # Request fanout histogram
system.tol2bus.snoop_fanout::total             768791                       # Request fanout histogram
system.tol2bus.reqLayer0.occupancy         1442317000                       # Layer occupancy (ticks)
system.tol2bus.reqLayer0.utilization              2.2                       # Layer utilization (%)
system.tol2bus.respLayer1.occupancy          82847495                       # Layer occupancy (ticks)
system.tol2bus.respLayer1.utilization             0.1                       # Layer utilization (%)
system.tol2bus.respLayer0.occupancy        1003348999                       # Layer occupancy (ticks)
system.tol2bus.respLayer0.utilization             1.5                       # Layer utilization (%)
system.voltage_domain.voltage                       1                       # Voltage in Volts
system.clk_domain.clock                          1000                       # Clock period in ticks
system.l2.pwrStateResidencyTicks::UNDEFINED  65473052000                       # Cumulative time (in ticks) in various power states
system.l2.demand_hits::.cpu.inst               668372                       # number of demand (read+write) hits
system.l2.demand_hits::.cpu.data                 7044                       # number of demand (read+write) hits
system.l2.demand_hits::total                   675416                       # number of demand (read+write) hits
system.l2.overall_hits::.cpu.inst              668372                       # number of overall hits
system.l2.overall_hits::.cpu.data                7044                       # number of overall hits
system.l2.overall_hits::total                  675416                       # number of overall hits
system.l2.demand_misses::.cpu.inst                527                       # number of demand (read+write) misses
system.l2.demand_misses::.cpu.data              48186                       # number of demand (read+write) misses
system.l2.demand_misses::total                  48713                       # number of demand (read+write) misses
system.l2.overall_misses::.cpu.inst               527                       # number of overall misses
system.l2.overall_misses::.cpu.data             48186                       # number of overall misses
system.l2.overall_misses::total                 48713                       # number of overall misses
system.l2.demand_miss_latency::.cpu.inst     40433500                       # number of demand (read+write) miss cycles
system.l2.demand_miss_latency::.cpu.data   3984990500                       # number of demand (read+write) miss cycles
system.l2.demand_miss_latency::total       4025424000                       # number of demand (read+write) miss cycles
system.l2.overall_miss_latency::.cpu.inst     40433500                       # number of overall miss cycles
system.l2.overall_miss_latency::.cpu.data   3984990500                       # number of overall miss cycles
system.l2.overall_miss_latency::total      4025424000                       # number of overall miss cycles
system.l2.demand_accesses::.cpu.inst           668899                       # number of demand (read+write) accesses
system.l2.demand_accesses::.cpu.data            55230                       # number of demand (read+write) accesses
system.l2.demand_accesses::total               724129                       # number of demand (read+write) accesses
system.l2.overall_accesses::.cpu.inst          668899                       # number of overall (read+write) accesses
system.l2.overall_accesses::.cpu.data           55230                       # number of overall (read+write) accesses
system.l2.overall_accesses::total              724129                       # number of overall (read+write) accesses
system.l2.demand_miss_rate::.cpu.inst        0.000788                       # miss rate for demand accesses
system.l2.demand_miss_rate::.cpu.data        0.872461                       # miss rate for demand accesses
system.l2.demand_miss_rate::total            0.067271                       # miss rate for demand accesses
system.l2.overall_miss_rate::.cpu.inst       0.000788                       # miss rate for overall accesses
system.l2.overall_miss_rate::.cpu.data       0.872461                       # miss rate for overall accesses
system.l2.overall_miss_rate::total           0.067271                       # miss rate for overall accesses
system.l2.demand_avg_miss_latency::.cpu.inst 76723.908918                       # average overall miss latency
system.l2.demand_avg_miss_latency::.cpu.data 82700.172249                       # average overall miss latency
system.l2.demand_avg_miss_latency::total 82635.518239                       # average overall miss latency
system.l2.overall_avg_miss_latency::.cpu.inst 76723.908918                       # average overall miss latency
system.l2.overall_avg_miss_latency::.cpu.data 82700.172249                       # average overall miss latency
system.l2.overall_avg_miss_latency::total 82635.518239                       # average overall miss latency
system.l2.blocked_cycles::no_mshrs                  0                       # number of cycles access was blocked
system.l2.blocked_cycles::no_targets                0                       # number of cycles access was blocked
system.l2.blocked::no_mshrs                         0                       # number of cycles access was blocked
system.l2.blocked::no_targets                       0                       # number of cycles access was blocked
system.l2.avg_blocked_cycles::no_mshrs            nan                       # average number of cycles each access was blocked
system.l2.avg_blocked_cycles::no_targets          nan                       # average number of cycles each access was blocked
system.l2.writebacks::.writebacks               43626                       # number of writebacks
system.l2.writebacks::total                     43626                       # number of writebacks
system.l2.demand_mshr_hits::.cpu.inst               1                       # number of demand (read+write) MSHR hits
system.l2.demand_mshr_hits::.cpu.data               5                       # number of demand (read+write) MSHR hits
system.l2.demand_mshr_hits::total                   6                       # number of demand (read+write) MSHR hits
system.l2.overall_mshr_hits::.cpu.inst              1                       # number of overall MSHR hits
system.l2.overall_mshr_hits::.cpu.data              5                       # number of overall MSHR hits
system.l2.overall_mshr_hits::total                  6                       # number of overall MSHR hits
system.l2.demand_mshr_misses::.cpu.inst           526                       # number of demand (read+write) MSHR misses
system.l2.demand_mshr_misses::.cpu.data         48181                       # number of demand (read+write) MSHR misses
system.l2.demand_mshr_misses::total             48707                       # number of demand (read+write) MSHR misses
system.l2.overall_mshr_misses::.cpu.inst          526                       # number of overall MSHR misses
system.l2.overall_mshr_misses::.cpu.data        48181                       # number of overall MSHR misses
system.l2.overall_mshr_misses::total            48707                       # number of overall MSHR misses
system.l2.demand_mshr_miss_latency::.cpu.inst     35109000                       # number of demand (read+write) MSHR miss cycles
system.l2.demand_mshr_miss_latency::.cpu.data   3502853500                       # number of demand (read+write) MSHR miss cycles
system.l2.demand_mshr_miss_latency::total   3537962500                       # number of demand (read+write) MSHR miss cycles
system.l2.overall_mshr_miss_latency::.cpu.inst     35109000                       # number of overall MSHR miss cycles
system.l2.overall_mshr_miss_latency::.cpu.data   3502853500                       # number of overall MSHR miss cycles
system.l2.overall_mshr_miss_latency::total   3537962500                       # number of overall MSHR miss cycles
system.l2.demand_mshr_miss_rate::.cpu.inst     0.000786                       # mshr miss rate for demand accesses
system.l2.demand_mshr_miss_rate::.cpu.data     0.872370                       # mshr miss rate for demand accesses
system.l2.demand_mshr_miss_rate::total       0.067263                       # mshr miss rate for demand accesses
system.l2.overall_mshr_miss_rate::.cpu.inst     0.000786                       # mshr miss rate for overall accesses
system.l2.overall_mshr_miss_rate::.cpu.data     0.872370                       # mshr miss rate for overall accesses
system.l2.overall_mshr_miss_rate::total      0.067263                       # mshr miss rate for overall accesses
system.l2.demand_avg_mshr_miss_latency::.cpu.inst 66747.148289                       # average overall mshr miss latency
system.l2.demand_avg_mshr_miss_latency::.cpu.data 72701.967581                       # average overall mshr miss latency
system.l2.demand_avg_mshr_miss_latency::total 72637.659885                       # average overall mshr miss latency
system.l2.overall_avg_mshr_miss_latency::.cpu.inst 66747.148289                       # average overall mshr miss latency
system.l2.overall_avg_mshr_miss_latency::.cpu.data 72701.967581                       # average overall mshr miss latency
system.l2.overall_avg_mshr_miss_latency::total 72637.659885                       # average overall mshr miss latency
system.l2.replacements                          44662                       # number of replacements
system.l2.WritebackDirty_hits::.writebacks        50398                       # number of WritebackDirty hits
system.l2.WritebackDirty_hits::total            50398                       # number of WritebackDirty hits
system.l2.WritebackDirty_accesses::.writebacks        50398                       # number of WritebackDirty accesses(hits+misses)
system.l2.WritebackDirty_accesses::total        50398                       # number of WritebackDirty accesses(hits+misses)
system.l2.WritebackClean_hits::.writebacks       668490                       # number of WritebackClean hits
system.l2.WritebackClean_hits::total           668490                       # number of WritebackClean hits
system.l2.WritebackClean_accesses::.writebacks       668490                       # number of WritebackClean accesses(hits+misses)
system.l2.WritebackClean_accesses::total       668490                       # number of WritebackClean accesses(hits+misses)
system.l2.CleanEvict_mshr_misses::.writebacks          338                       # number of CleanEvict MSHR misses
system.l2.CleanEvict_mshr_misses::total           338                       # number of CleanEvict MSHR misses
system.l2.CleanEvict_mshr_miss_rate::.writebacks          inf                       # mshr miss rate for CleanEvict accesses
system.l2.CleanEvict_mshr_miss_rate::total          inf                       # mshr miss rate for CleanEvict accesses
system.l2.ReadExReq_hits::.cpu.data               124                       # number of ReadExReq hits
system.l2.ReadExReq_hits::total                   124                       # number of ReadExReq hits
system.l2.ReadExReq_misses::.cpu.data           38811                       # number of ReadExReq misses
system.l2.ReadExReq_misses::total               38811                       # number of ReadExReq misses
system.l2.ReadExReq_miss_latency::.cpu.data   3142708500                       # number of ReadExReq miss cycles
system.l2.ReadExReq_miss_latency::total    3142708500                       # number of ReadExReq miss cycles
system.l2.ReadExReq_accesses::.cpu.data         38935                       # number of ReadExReq accesses(hits+misses)
system.l2.ReadExReq_accesses::total             38935                       # number of ReadExReq accesses(hits+misses)
system.l2.ReadExReq_miss_rate::.cpu.data     0.996815                       # miss rate for ReadExReq accesses
system.l2.ReadExReq_miss_rate::total         0.996815                       # miss rate for ReadExReq accesses
system.l2.ReadExReq_avg_miss_latency::.cpu.data 80974.685012                       # average ReadExReq miss latency
system.l2.ReadExReq_avg_miss_latency::total 80974.685012                       # average ReadExReq miss latency
system.l2.ReadExReq_mshr_misses::.cpu.data        38811                       # number of ReadExReq MSHR misses
system.l2.ReadExReq_mshr_misses::total          38811                       # number of ReadExReq MSHR misses
system.l2.ReadExReq_mshr_miss_latency::.cpu.data   2754598500                       # number of ReadExReq MSHR miss cycles
system.l2.ReadExReq_mshr_miss_latency::total   2754598500                       # number of ReadExReq MSHR miss cycles
system.l2.ReadExReq_mshr_miss_rate::.cpu.data     0.996815                       # mshr miss rate for ReadExReq accesses
system.l2.ReadExReq_mshr_miss_rate::total     0.996815                       # mshr miss rate for ReadExReq accesses
system.l2.ReadExReq_avg_mshr_miss_latency::.cpu.data 70974.685012                       # average ReadExReq mshr miss latency
system.l2.ReadExReq_avg_mshr_miss_latency::total 70974.685012                       # average ReadExReq mshr miss latency
system.l2.ReadCleanReq_hits::.cpu.inst         668372                       # number of ReadCleanReq hits
system.l2.ReadCleanReq_hits::total             668372                       # number of ReadCleanReq hits
system.l2.ReadCleanReq_misses::.cpu.inst          527                       # number of ReadCleanReq misses
system.l2.ReadCleanReq_misses::total              527                       # number of ReadCleanReq misses
system.l2.ReadCleanReq_miss_latency::.cpu.inst     40433500                       # number of ReadCleanReq miss cycles
system.l2.ReadCleanReq_miss_latency::total     40433500                       # number of ReadCleanReq miss cycles
system.l2.ReadCleanReq_accesses::.cpu.inst       668899                       # number of ReadCleanReq accesses(hits+misses)
system.l2.ReadCleanReq_accesses::total         668899                       # number of ReadCleanReq accesses(hits+misses)
system.l2.ReadCleanReq_miss_rate::.cpu.inst     0.000788                       # miss rate for ReadCleanReq accesses
system.l2.ReadCleanReq_miss_rate::total      0.000788                       # miss rate for ReadCleanReq accesses
system.l2.ReadCleanReq_avg_miss_latency::.cpu.inst 76723.908918                       # average ReadCleanReq miss latency
system.l2.ReadCleanReq_avg_miss_latency::total 76723.908918                       # average ReadCleanReq miss latency
system.l2.ReadCleanReq_mshr_hits::.cpu.inst            1                       # number of ReadCleanReq MSHR hits
system.l2.ReadCleanReq_mshr_hits::total             1                       # number of ReadCleanReq MSHR hits
system.l2.ReadCleanReq_mshr_misses::.cpu.inst          526                       # number of ReadCleanReq MSHR misses
system.l2.ReadCleanReq_mshr_misses::total          526                       # number of ReadCleanReq MSHR misses
system.l2.ReadCleanReq_mshr_miss_latency::.cpu.inst     35109000                       # number of ReadCleanReq MSHR miss cycles
system.l2.ReadCleanReq_mshr_miss_latency::total     35109000                       # number of ReadCleanReq MSHR miss cycles
system.l2.ReadCleanReq_mshr_miss_rate::.cpu.inst     0.000786                       # mshr miss rate for ReadCleanReq accesses
system.l2.ReadCleanReq_mshr_miss_rate::total     0.000786                       # mshr miss rate for ReadCleanReq accesses
system.l2.ReadCleanReq_avg_mshr_miss_latency::.cpu.inst 66747.148289                       # average ReadCleanReq mshr miss latency
system.l2.ReadCleanReq_avg_mshr_miss_latency::total 66747.148289                       # average ReadCleanReq mshr miss latency
system.l2.ReadSharedReq_hits::.cpu.data          6920                       # number of ReadSharedReq hits
system.l2.ReadSharedReq_hits::total              6920                       # number of ReadSharedReq hits
system.l2.ReadSharedReq_misses::.cpu.data         9375                       # number of ReadSharedReq misses
system.l2.ReadSharedReq_misses::total            9375                       # number of ReadSharedReq misses
system.l2.ReadSharedReq_miss_latency::.cpu.data    842282000                       # number of ReadSharedReq miss cycles
system.l2.ReadSharedReq_miss_latency::total    842282000                       # number of ReadSharedReq miss cycles
system.l2.ReadSharedReq_accesses::.cpu.data        16295                       # number of ReadSharedReq accesses(hits+misses)
system.l2.ReadSharedReq_accesses::total         16295                       # number of ReadSharedReq accesses(hits+misses)
system.l2.ReadSharedReq_miss_rate::.cpu.data     0.575330                       # miss rate for ReadSharedReq accesses
system.l2.ReadSharedReq_miss_rate::total     0.575330                       # miss rate for ReadSharedReq accesses
system.l2.ReadSharedReq_avg_miss_latency::.cpu.data 89843.413333                       # average ReadSharedReq miss latency
system.l2.ReadSharedReq_avg_miss_latency::total 89843.413333                       # average ReadSharedReq miss latency
system.l2.ReadSharedReq_mshr_hits::.cpu.data            5                       # number of ReadSharedReq MSHR hits
system.l2.ReadSharedReq_mshr_hits::total            5                       # number of ReadSharedReq MSHR hits
system.l2.ReadSharedReq_mshr_misses::.cpu.data         9370                       # number of ReadSharedReq MSHR misses
system.l2.ReadSharedReq_mshr_misses::total         9370                       # number of ReadSharedReq MSHR misses
system.l2.ReadSharedReq_mshr_miss_latency::.cpu.data    748255000                       # number of ReadSharedReq MSHR miss cycles
system.l2.ReadSharedReq_mshr_miss_latency::total    748255000                       # number of ReadSharedReq MSHR miss cycles
system.l2.ReadSharedReq_mshr_miss_rate::.cpu.data     0.575023                       # mshr miss rate for ReadSharedReq accesses
system.l2.ReadSharedReq_mshr_miss_rate::total     0.575023                       # mshr miss rate for ReadSharedReq accesses
system.l2.ReadSharedReq_avg_mshr_miss_latency::.cpu.data 79856.456777                       # average ReadSharedReq mshr miss latency
system.l2.ReadSharedReq_avg_mshr_miss_latency::total 79856.456777                       # average ReadSharedReq mshr miss latency
system.l2.tags.pwrStateResidencyTicks::UNDEFINED  65473052000                       # Cumulative time (in ticks) in various power states
system.l2.tags.tagsinuse                  4054.280509                       # Cycle average of tags in use
system.l2.tags.total_refs                     1446463                       # Total number of references to valid blocks.
system.l2.tags.sampled_refs                     48758                       # Sample count of references to valid blocks.
system.l2.tags.avg_refs                     29.666168                       # Average number of references to valid blocks.
system.l2.tags.warmup_cycle                     77000                       # Cycle when the warmup percentage was hit.
system.l2.tags.occ_blocks::.writebacks       7.028498                       # Average occupied blocks per requestor
system.l2.tags.occ_blocks::.cpu.inst        28.835464                       # Average occupied blocks per requestor
system.l2.tags.occ_blocks::.cpu.data      4018.416546                       # Average occupied blocks per requestor
system.l2.tags.occ_percent::.writebacks      0.001716                       # Average percentage of cache occupancy
system.l2.tags.occ_percent::.cpu.inst        0.007040                       # Average percentage of cache occupancy
system.l2.tags.occ_percent::.cpu.data        0.981059                       # Average percentage of cache occupancy
system.l2.tags.occ_percent::total            0.989815                       # Average percentage of cache occupancy
system.l2.tags.occ_task_id_blocks::1024          4096                       # Occupied blocks per task id
system.l2.tags.age_task_id_blocks_1024::0            3                       # Occupied blocks per task id
system.l2.tags.age_task_id_blocks_1024::1           30                       # Occupied blocks per task id
system.l2.tags.age_task_id_blocks_1024::2          478                       # Occupied blocks per task id
system.l2.tags.age_task_id_blocks_1024::3         3385                       # Occupied blocks per task id
system.l2.tags.age_task_id_blocks_1024::4          200                       # Occupied blocks per task id
system.l2.tags.occ_task_id_percent::1024            1                       # Percentage of cache occupancy per task id
system.l2.tags.tag_accesses                  11623214                       # Number of tag accesses
system.l2.tags.data_accesses                 11623214                       # Number of data accesses
system.cpu_voltage_domain.voltage                   1                       # Voltage in Volts
system.mem_ctrls.pwrStateResidencyTicks::UNDEFINED  65473052000                       # Cumulative time (in ticks) in various power states
system.mem_ctrls.bytes_read::.cpu.inst          33664                       # Number of bytes read from this memory
system.mem_ctrls.bytes_read::.cpu.data        3083584                       # Number of bytes read from this memory
system.mem_ctrls.bytes_read::total            3117248                       # Number of bytes read from this memory
system.mem_ctrls.bytes_inst_read::.cpu.inst        33664                       # Number of instructions bytes read from this memory
system.mem_ctrls.bytes_inst_read::total         33664                       # Number of instructions bytes read from this memory
system.mem_ctrls.bytes_written::.writebacks      2792064                       # Number of bytes written to this memory
system.mem_ctrls.bytes_written::total         2792064                       # Number of bytes written to this memory
system.mem_ctrls.num_reads::.cpu.inst             526                       # Number of read requests responded to by this memory
system.mem_ctrls.num_reads::.cpu.data           48181                       # Number of read requests responded to by this memory
system.mem_ctrls.num_reads::total               48707                       # Number of read requests responded to by this memory
system.mem_ctrls.num_writes::.writebacks        43626                       # Number of write requests responded to by this memory
system.mem_ctrls.num_writes::total              43626                       # Number of write requests responded to by this memory
system.mem_ctrls.bw_read::.cpu.inst            514166                       # Total read bandwidth from this memory (bytes/s)
system.mem_ctrls.bw_read::.cpu.data          47096995                       # Total read bandwidth from this memory (bytes/s)
system.mem_ctrls.bw_read::total              47611161                       # Total read bandwidth from this memory (bytes/s)
system.mem_ctrls.bw_inst_read::.cpu.inst       514166                       # Instruction read bandwidth from this memory (bytes/s)
system.mem_ctrls.bw_inst_read::total           514166                       # Instruction read bandwidth from this memory (bytes/s)
system.mem_ctrls.bw_write::.writebacks       42644476                       # Write bandwidth from this memory (bytes/s)
system.mem_ctrls.bw_write::total             42644476                       # Write bandwidth from this memory (bytes/s)
system.mem_ctrls.bw_total::.writebacks       42644476                       # Total bandwidth to/from this memory (bytes/s)
system.mem_ctrls.bw_total::.cpu.inst           514166                       # Total bandwidth to/from this memory (bytes/s)
system.mem_ctrls.bw_total::.cpu.data         47096995                       # Total bandwidth to/from this memory (bytes/s)
system.mem_ctrls.bw_total::total             90255637                       # Total bandwidth to/from this memory (bytes/s)
system.mem_ctrls.avgPriority_.writebacks::samples     43626.00                       # Average QoS priority value for accepted requests
system.mem_ctrls.avgPriority_.cpu.inst::samples       526.00                       # Average QoS priority value for accepted requests
system.mem_ctrls.avgPriority_.cpu.data::samples     48179.00                       # Average QoS priority value for accepted requests
system.mem_ctrls.priorityMinLatency      0.000000018750                       # per QoS priority minimum request to response latency (s)
system.mem_ctrls.priorityMaxLatency      0.000986796500                       # per QoS priority maximum request to response latency (s)
system.mem_ctrls.numReadWriteTurnArounds         2454                       # Number of turnarounds from READ to WRITE
system.mem_ctrls.numWriteReadTurnArounds         2454                       # Number of turnarounds from WRITE to READ
system.mem_ctrls.numStayReadState              157044                       # Number of times bus staying in READ state
system.mem_ctrls.numStayWriteState              41183                       # Number of times bus staying in WRITE state
system.mem_ctrls.readReqs                       48707                       # Number of read requests accepted
system.mem_ctrls.writeReqs                      43626                       # Number of write requests accepted
system.mem_ctrls.readBursts                     48707                       # Number of DRAM read bursts, including those serviced by the write queue
system.mem_ctrls.writeBursts                    43626                       # Number of DRAM write bursts, including those merged in the write queue
system.mem_ctrls.servicedByWrQ                      2                       # Number of DRAM read bursts serviced by the write queue
system.mem_ctrls.mergedWrBursts                     0                       # Number of DRAM write bursts merged with an existing one
system.mem_ctrls.neitherReadNorWriteReqs            0                       # Number of requests that are neither read nor write
system.mem_ctrls.perBankRdBursts::0              3003                       # Per bank write bursts
system.mem_ctrls.perBankRdBursts::1              2885                       # Per bank write bursts
system.mem_ctrls.perBankRdBursts::2              2852                       # Per bank write bursts
system.mem_ctrls.perBankRdBursts::3              3240                       # Per bank write bursts
system.mem_ctrls.perBankRdBursts::4              3447                       # Per bank write bursts
system.mem_ctrls.perBankRdBursts::5              2987                       # Per bank write bursts
system.mem_ctrls.perBankRdBursts::6              3005                       # Per bank write bursts
system.mem_ctrls.perBankRdBursts::7              2996                       # Per bank write bursts
system.mem_ctrls.perBankRdBursts::8              3000                       # Per bank write bursts
system.mem_ctrls.perBankRdBursts::9              3034                       # Per bank write bursts
system.mem_ctrls.perBankRdBursts::10             2993                       # Per bank write bursts
system.mem_ctrls.perBankRdBursts::11             3063                       # Per bank write bursts
system.mem_ctrls.perBankRdBursts::12             3080                       # Per bank write bursts
system.mem_ctrls.perBankRdBursts::13             3009                       # Per bank write bursts
system.mem_ctrls.perBankRdBursts::14             3085                       # Per bank write bursts
system.mem_ctrls.perBankRdBursts::15             3026                       # Per bank write bursts
system.mem_ctrls.perBankWrBursts::0              2676                       # Per bank write bursts
system.mem_ctrls.perBankWrBursts::1              2638                       # Per bank write bursts
system.mem_ctrls.perBankWrBursts::2              2617                       # Per bank write bursts
system.mem_ctrls.perBankWrBursts::3              2759                       # Per bank write bursts
system.mem_ctrls.perBankWrBursts::4              2936                       # Per bank write bursts
system.mem_ctrls.perBankWrBursts::5              2748                       # Per bank write bursts
system.mem_ctrls.perBankWrBursts::6              2774                       # Per bank write bursts
system.mem_ctrls.perBankWrBursts::7              2745                       # Per bank write bursts
system.mem_ctrls.perBankWrBursts::8              2740                       # Per bank write bursts
system.mem_ctrls.perBankWrBursts::9              2712                       # Per bank write bursts
system.mem_ctrls.perBankWrBursts::10             2682                       # Per bank write bursts
system.mem_ctrls.perBankWrBursts::11             2761                       # Per bank write bursts
system.mem_ctrls.perBankWrBursts::12             2746                       # Per bank write bursts
system.mem_ctrls.perBankWrBursts::13             2669                       # Per bank write bursts
system.mem_ctrls.perBankWrBursts::14             2708                       # Per bank write bursts
system.mem_ctrls.perBankWrBursts::15             2690                       # Per bank write bursts
system.mem_ctrls.avgRdQLen                       1.09                       # Average read queue length when enqueuing
system.mem_ctrls.avgWrQLen                      24.07                       # Average write queue length when enqueuing
system.mem_ctrls.totQLat                    622699250                       # Total ticks spent queuing
system.mem_ctrls.totBusLat                  243525000                       # Total ticks spent in databus transfers
system.mem_ctrls.totMemAccLat              1535918000                       # Total ticks spent from burst creation until serviced by the DRAM
system.mem_ctrls.avgQLat                     12785.12                       # Average queueing delay per DRAM burst
system.mem_ctrls.avgBusLat                    5000.00                       # Average bus latency per DRAM burst
system.mem_ctrls.avgMemAccLat                31535.12                       # Average memory access latency per DRAM burst
system.mem_ctrls.numRdRetry                         0                       # Number of times read queue was full causing retry
system.mem_ctrls.numWrRetry                         0                       # Number of times write queue was full causing retry
system.mem_ctrls.readRowHits                    26764                       # Number of row buffer hits during reads
system.mem_ctrls.writeRowHits                   27761                       # Number of row buffer hits during writes
system.mem_ctrls.readRowHitRate                 54.95                       # Row buffer hit rate for reads
system.mem_ctrls.writeRowHitRate                63.63                       # Row buffer hit rate for writes
system.mem_ctrls.readPktSize::0                     0                       # Read request sizes (log2)
system.mem_ctrls.readPktSize::1                     0                       # Read request sizes (log2)
system.mem_ctrls.readPktSize::2                     0                       # Read request sizes (log2)
system.mem_ctrls.readPktSize::3                     0                       # Read request sizes (log2)
system.mem_ctrls.readPktSize::4                     0                       # Read request sizes (log2)
system.mem_ctrls.readPktSize::5                     0                       # Read request sizes (log2)
system.mem_ctrls.readPktSize::6                 48707                       # Read request sizes (log2)
system.mem_ctrls.writePktSize::0                    0                       # Write request sizes (log2)
system.mem_ctrls.writePktSize::1                    0                       # Write request sizes (log2)
system.mem_ctrls.writePktSize::2                    0                       # Write request sizes (log2)
system.mem_ctrls.writePktSize::3                    0                       # Write request sizes (log2)
system.mem_ctrls.writePktSize::4                    0                       # Write request sizes (log2)
system.mem_ctrls.writePktSize::5                    0                       # Write request sizes (log2)
system.mem_ctrls.writePktSize::6                43626                       # Write request sizes (log2)
system.mem_ctrls.rdQLenPdf::0                   45532                       # What read queue length does an incoming req see
system.mem_ctrls.rdQLenPdf::1                    3165                       # What read queue length does an incoming req see
system.mem_ctrls.rdQLenPdf::2                       8                       # What read queue length does an incoming req see
system.mem_ctrls.rdQLenPdf::3                       0                       # What read queue length does an incoming req see
system.mem_ctrls.rdQLenPdf::4                       0                       # What read queue length does an incoming req see
system.mem_ctrls.rdQLenPdf::5                       0                       # What read queue length does an incoming req see
system.mem_ctrls.rdQLenPdf::6                       0                       # What read queue length does an incoming req see
system.mem_ctrls.rdQLenPdf::7                       0                       # What read queue length does an incoming req see
system.mem_ctrls.rdQLenPdf::8                       0                       # What read queue length does an incoming req see
system.mem_ctrls.rdQLenPdf::9                       0                       # What read queue length does an incoming req see
system.mem_ctrls.rdQLenPdf::10                      0                       # What read queue length does an incoming req see
system.mem_ctrls.rdQLenPdf::11                      0                       # What read queue length does an incoming req see
system.mem_ctrls.rdQLenPdf::12                      0                       # What read queue length does an incoming req see
system.mem_ctrls.rdQLenPdf::13                      0                       # What read queue length does an incoming req see
system.mem_ctrls.rdQLenPdf::14                      0                       # What read queue length does an incoming req see
system.mem_ctrls.rdQLenPdf::15                      0                       # What read queue length does an incoming req see
system.mem_ctrls.rdQLenPdf::16                      0                       # What read queue length does an incoming req see
system.mem_ctrls.rdQLenPdf::17                      0                       # What read queue length does an incoming req see
system.mem_ctrls.rdQLenPdf::18                      0                       # What read queue length does an incoming req see
system.mem_ctrls.rdQLenPdf::19                      0                       # What read queue length does an incoming req see
system.mem_ctrls.rdQLenPdf::20                      0                       # What read queue length does an incoming req see
system.mem_ctrls.rdQLenPdf::21                      0                       # What read queue length does an incoming req see
system.mem_ctrls.rdQLenPdf::22                      0                       # What read queue length does an incoming req see
system.mem_ctrls.rdQLenPdf::23                      0                       # What read queue length does an incoming req see
system.mem_ctrls.rdQLenPdf::24                      0                       # What read queue length does an incoming req see
system.mem_ctrls.rdQLenPdf::25                      0                       # What read queue length does an incoming req see
system.mem_ctrls.rdQLenPdf::26                      0                       # What read queue length does an incoming req see
system.mem_ctrls.rdQLenPdf::27                      0                       # What read queue length does an incoming req see
system.mem_ctrls.rdQLenPdf::28                      0                       # What read queue length does an incoming req see
system.mem_ctrls.rdQLenPdf::29                      0                       # What read queue length does an incoming req see
system.mem_ctrls.rdQLenPdf::30                      0                       # What read queue length does an incoming req see
system.mem_ctrls.rdQLenPdf::31                      0                       # What read queue length does an incoming req see
system.mem_ctrls.wrQLenPdf::0                       1                       # What write queue length does an incoming req see
system.mem_ctrls.wrQLenPdf::1                       1                       # What write queue length does an incoming req see
system.mem_ctrls.wrQLenPdf::2                       1                       # What write queue length does an incoming req see
system.mem_ctrls.wrQLenPdf::3                       1                       # What write queue length does an incoming req see
system.mem_ctrls.wrQLenPdf::4                       1                       # What write queue length does an incoming req see
system.mem_ctrls.wrQLenPdf::5                       1                       # What write queue length does an incoming req see
system.mem_ctrls.wrQLenPdf::6                       1                       # What write queue length does an incoming req see
system.mem_ctrls.wrQLenPdf::7                       1                       # What write queue length does an incoming req see
system.mem_ctrls.wrQLenPdf::8                       1                       # What write queue length does an incoming req see
system.mem_ctrls.wrQLenPdf::9                       1                       # What write queue length does an incoming req see
system.mem_ctrls.wrQLenPdf::10                      1                       # What write queue length does an incoming req see
system.mem_ctrls.wrQLenPdf::11                      1                       # What write queue length does an incoming req see
system.mem_ctrls.wrQLenPdf::12                      1                       # What write queue length does an incoming req see
system.mem_ctrls.wrQLenPdf::13                      1                       # What write queue length does an incoming req see
system.mem_ctrls.wrQLenPdf::14                      1                       # What write queue length does an incoming req see
system.mem_ctrls.wrQLenPdf::15                   2031                       # What write queue length does an incoming req see
system.mem_ctrls.wrQLenPdf::16                   2081                       # What write queue length does an incoming req see
system.mem_ctrls.wrQLenPdf::17                   2455                       # What write queue length does an incoming req see
system.mem_ctrls.wrQLenPdf::18                   2456                       # What write queue length does an incoming req see
system.mem_ctrls.wrQLenPdf::19                   2458                       # What write queue length does an incoming req see
system.mem_ctrls.wrQLenPdf::20                   2463                       # What write queue length does an incoming req see
system.mem_ctrls.wrQLenPdf::21                   2465                       # What write queue length does an incoming req see
system.mem_ctrls.wrQLenPdf::22                   2463                       # What write queue length does an incoming req see
system.mem_ctrls.wrQLenPdf::23                   2474                       # What write queue length does an incoming req see
system.mem_ctrls.wrQLenPdf::24                   2483                       # What write queue length does an incoming req see
system.mem_ctrls.wrQLenPdf::25                   2466                       # What write queue length does an incoming req see
system.mem_ctrls.wrQLenPdf::26                   2511                       # What write queue length does an incoming req see
system.mem_ctrls.wrQLenPdf::27                   2470                       # What write queue length does an incoming req see
system.mem_ctrls.wrQLenPdf::28                   2483                       # What write queue length does an incoming req see
system.mem_ctrls.wrQLenPdf::29                   2489                       # What write queue length does an incoming req see
system.mem_ctrls.wrQLenPdf::30                   2454                       # What write queue length does an incoming req see
system.mem_ctrls.wrQLenPdf::31                   2454                       # What write queue length does an incoming req see
system.mem_ctrls.wrQLenPdf::32                   2454                       # What write queue length does an incoming req see
system.mem_ctrls.wrQLenPdf::33                      1                       # What write queue length does an incoming req see
system.mem_ctrls.wrQLenPdf::34                      0                       # What write queue length does an incoming req see
system.mem_ctrls.wrQLenPdf::35                      0                       # What write queue length does an incoming req see
system.mem_ctrls.wrQLenPdf::36                      0                       # What write queue length does an incoming req see
system.mem_ctrls.wrQLenPdf::37                      0                       # What write queue length does an incoming req see
system.mem_ctrls.wrQLenPdf::38                      0                       # What write queue length does an incoming req see
system.mem_ctrls.wrQLenPdf::39                      0                       # What write queue length does an incoming req see
system.mem_ctrls.wrQLenPdf::40                      0                       # What write queue length does an incoming req see
system.mem_ctrls.wrQLenPdf::41                      0                       # What write queue length does an incoming req see
system.mem_ctrls.wrQLenPdf::42                      0                       # What write queue length does an incoming req see
system.mem_ctrls.wrQLenPdf::43                      0                       # What write queue length does an incoming req see
system.mem_ctrls.wrQLenPdf::44                      0                       # What write queue length does an incoming req see
system.mem_ctrls.wrQLenPdf::45                      0                       # What write queue length does an incoming req see
system.mem_ctrls.wrQLenPdf::46                      0                       # What write queue length does an incoming req see
system.mem_ctrls.wrQLenPdf::47                      0                       # What write queue length does an incoming req see
system.mem_ctrls.wrQLenPdf::48                      0                       # What write queue length does an incoming req see
system.mem_ctrls.wrQLenPdf::49                      0                       # What write queue length does an incoming req see
system.mem_ctrls.wrQLenPdf::50                      0                       # What write queue length does an incoming req see
system.mem_ctrls.wrQLenPdf::51                      0                       # What write queue length does an incoming req see
system.mem_ctrls.wrQLenPdf::52                      0                       # What write queue length does an incoming req see
system.mem_ctrls.wrQLenPdf::53                      0                       # What write queue length does an incoming req see
system.mem_ctrls.wrQLenPdf::54                      0                       # What write queue length does an incoming req see
system.mem_ctrls.wrQLenPdf::55                      0                       # What write queue length does an incoming req see
system.mem_ctrls.wrQLenPdf::56                      0                       # What write queue length does an incoming req see
system.mem_ctrls.wrQLenPdf::57                      0                       # What write queue length does an incoming req see
system.mem_ctrls.wrQLenPdf::58                      0                       # What write queue length does an incoming req see
system.mem_ctrls.wrQLenPdf::59                      0                       # What write queue length does an incoming req see
system.mem_ctrls.wrQLenPdf::60                      0                       # What write queue length does an incoming req see
system.mem_ctrls.wrQLenPdf::61                      0                       # What write queue length does an incoming req see
system.mem_ctrls.wrQLenPdf::62                      0                       # What write queue length does an incoming req see
system.mem_ctrls.wrQLenPdf::63                      0                       # What write queue length does an incoming req see
system.mem_ctrls.bytesPerActivate::samples        37780                       # Bytes accessed per row activation
system.mem_ctrls.bytesPerActivate::mean    156.364637                       # Bytes accessed per row activation
system.mem_ctrls.bytesPerActivate::gmean   116.820558                       # Bytes accessed per row activation
system.mem_ctrls.bytesPerActivate::stdev   150.673891                       # Bytes accessed per row activation
system.mem_ctrls.bytesPerActivate::0-127        18670     49.42%     49.42% # Bytes accessed per row activation
system.mem_ctrls.bytesPerActivate::128-255        12568     33.27%     82.68% # Bytes accessed per row activation
system.mem_ctrls.bytesPerActivate::256-383         3444      9.12%     91.80% # Bytes accessed per row activation
system.mem_ctrls.bytesPerActivate::384-511         1202      3.18%     94.98% # Bytes accessed per row activation
system.mem_ctrls.bytesPerActivate::512-639         1078      2.85%     97.83% # Bytes accessed per row activation
system.mem_ctrls.bytesPerActivate::640-767          296      0.78%     98.62% # Bytes accessed per row activation
system.mem_ctrls.bytesPerActivate::768-895          219      0.58%     99.20% # Bytes accessed per row activation
system.mem_ctrls.bytesPerActivate::896-1023          128      0.34%     99.54% # Bytes accessed per row activation
system.mem_ctrls.bytesPerActivate::1024-1151          175      0.46%    100.00% # Bytes accessed per row activation
system.mem_ctrls.bytesPerActivate::total        37780                       # Bytes accessed per row activation
system.mem_ctrls.rdPerTurnAround::samples         2454                       # Reads before turning the bus around for writes
system.mem_ctrls.rdPerTurnAround::mean      19.843113                       # Reads before turning the bus around for writes
system.mem_ctrls.rdPerTurnAround::gmean     18.043274                       # Reads before turning the bus around for writes
system.mem_ctrls.rdPerTurnAround::stdev     84.311998                       # Reads before turning the bus around for writes
system.mem_ctrls.rdPerTurnAround::0-255          2453     99.96%     99.96% # Reads before turning the bus around for writes
system.mem_ctrls.rdPerTurnAround::4096-4351            1      0.04%    100.00% # Reads before turning the bus around for writes
[...]
system.cpu.icache.ReadReq_mshr_miss_latency::.cpu.inst   8061702000                       # number of ReadReq MSHR miss cycles
system.cpu.icache.ReadReq_mshr_miss_latency::total   8061702000                       # number of ReadReq MSHR miss cycles
system.cpu.icache.ReadReq_mshr_miss_rate::.cpu.inst     0.023612                       # mshr miss rate for ReadReq accesses
system.cpu.icache.ReadReq_mshr_miss_rate::total     0.023612                       # mshr miss rate for ReadReq accesses
system.cpu.icache.ReadReq_avg_mshr_miss_latency::.cpu.inst 12052.196221                       # average ReadReq mshr miss latency
system.cpu.icache.ReadReq_avg_mshr_miss_latency::total 12052.196221                       # average ReadReq mshr miss latency
system.cpu.icache.tags.pwrStateResidencyTicks::UNDEFINED  65473052000                       # Cumulative time (in ticks) in various power states
system.cpu.icache.tags.tagsinuse           397.676677                       # Cycle average of tags in use
system.cpu.icache.tags.total_refs            28328255                       # Total number of references to valid blocks.
system.cpu.icache.tags.sampled_refs            668899                       # Sample count of references to valid blocks.
system.cpu.icache.tags.avg_refs             42.350572                       # Average number of references to valid blocks.
system.cpu.icache.tags.warmup_cycle             87500                       # Cycle when the warmup percentage was hit.
system.cpu.icache.tags.occ_blocks::.cpu.inst   397.676677                       # Average occupied blocks per requestor
system.cpu.icache.tags.occ_percent::.cpu.inst     0.776712                       # Average percentage of cache occupancy
system.cpu.icache.tags.occ_percent::total     0.776712                       # Average percentage of cache occupancy
system.cpu.icache.tags.occ_task_id_blocks::1024          398                       # Occupied blocks per task id
system.cpu.icache.tags.age_task_id_blocks_1024::0           10                       # Occupied blocks per task id
system.cpu.icache.tags.age_task_id_blocks_1024::2            4                       # Occupied blocks per task id
system.cpu.icache.tags.age_task_id_blocks_1024::3            1                       # Occupied blocks per task id
system.cpu.icache.tags.age_task_id_blocks_1024::4          383                       # Occupied blocks per task id
system.cpu.icache.tags.occ_task_id_percent::1024     0.777344                       # Percentage of cache occupancy per task id
system.cpu.icache.tags.tag_accesses          57325409                       # Number of tag accesses
system.cpu.icache.tags.data_accesses         57325409                       # Number of data accesses
system.cpu.dtb.walker.pwrStateResidencyTicks::UNDEFINED  65473052000                       # Cumulative time (in ticks) in various power states
system.cpu.dtb.stage2_mmu.stage2_tlb.walker.pwrStateResidencyTicks::UNDEFINED  65473052000                       # Cumulative time (in ticks) in various power states
system.cpu.dcache.pwrStateResidencyTicks::UNDEFINED  65473052000                       # Cumulative time (in ticks) in various power states
system.cpu.dcache.demand_hits::.cpu.data     34815738                       # number of demand (read+write) hits
system.cpu.dcache.demand_hits::total         34815738                       # number of demand (read+write) hits
system.cpu.dcache.overall_hits::.cpu.data     34819065                       # number of overall hits
system.cpu.dcache.overall_hits::total        34819065                       # number of overall hits
system.cpu.dcache.demand_misses::.cpu.data        75060                       # number of demand (read+write) misses
system.cpu.dcache.demand_misses::total          75060                       # number of demand (read+write) misses
system.cpu.dcache.overall_misses::.cpu.data        75098                       # number of overall misses
system.cpu.dcache.overall_misses::total         75098                       # number of overall misses
system.cpu.dcache.demand_miss_latency::.cpu.data   5383428500                       # number of demand (read+write) miss cycles
system.cpu.dcache.demand_miss_latency::total   5383428500                       # number of demand (read+write) miss cycles
system.cpu.dcache.overall_miss_latency::.cpu.data   5383428500                       # number of overall miss cycles
system.cpu.dcache.overall_miss_latency::total   5383428500                       # number of overall miss cycles
system.cpu.dcache.demand_accesses::.cpu.data     34890798                       # number of demand (read+write) accesses
system.cpu.dcache.demand_accesses::total     34890798                       # number of demand (read+write) accesses
system.cpu.dcache.overall_accesses::.cpu.data     34894163                       # number of overall (read+write) accesses
system.cpu.dcache.overall_accesses::total     34894163                       # number of overall (read+write) accesses
system.cpu.dcache.demand_miss_rate::.cpu.data     0.002151                       # miss rate for demand accesses
system.cpu.dcache.demand_miss_rate::total     0.002151                       # miss rate for demand accesses
system.cpu.dcache.overall_miss_rate::.cpu.data     0.002152                       # miss rate for overall accesses
system.cpu.dcache.overall_miss_rate::total     0.002152                       # miss rate for overall accesses
system.cpu.dcache.demand_avg_miss_latency::.cpu.data 71721.669331                       # average overall miss latency
system.cpu.dcache.demand_avg_miss_latency::total 71721.669331                       # average overall miss latency
system.cpu.dcache.overall_avg_miss_latency::.cpu.data 71685.377773                       # average overall miss latency
system.cpu.dcache.overall_avg_miss_latency::total 71685.377773                       # average overall miss latency
system.cpu.dcache.blocked_cycles::no_mshrs            0                       # number of cycles access was blocked
system.cpu.dcache.blocked_cycles::no_targets            0                       # number of cycles access was blocked
system.cpu.dcache.blocked::no_mshrs                 0                       # number of cycles access was blocked
system.cpu.dcache.blocked::no_targets               0                       # number of cycles access was blocked
system.cpu.dcache.avg_blocked_cycles::no_mshrs          nan                       # average number of cycles each access was blocked
system.cpu.dcache.avg_blocked_cycles::no_targets          nan                       # average number of cycles each access was blocked
system.cpu.dcache.writebacks::.writebacks        50398                       # number of writebacks
system.cpu.dcache.writebacks::total             50398                       # number of writebacks
system.cpu.dcache.demand_mshr_hits::.cpu.data        19862                       # number of demand (read+write) MSHR hits
system.cpu.dcache.demand_mshr_hits::total        19862                       # number of demand (read+write) MSHR hits
system.cpu.dcache.overall_mshr_hits::.cpu.data        19862                       # number of overall MSHR hits
system.cpu.dcache.overall_mshr_hits::total        19862                       # number of overall MSHR hits
system.cpu.dcache.demand_mshr_misses::.cpu.data        55198                       # number of demand (read+write) MSHR misses
system.cpu.dcache.demand_mshr_misses::total        55198                       # number of demand (read+write) MSHR misses
system.cpu.dcache.overall_mshr_misses::.cpu.data        55230                       # number of overall MSHR misses
system.cpu.dcache.overall_mshr_misses::total        55230                       # number of overall MSHR misses
system.cpu.dcache.demand_mshr_miss_latency::.cpu.data   4139950500                       # number of demand (read+write) MSHR miss cycles
system.cpu.dcache.demand_mshr_miss_latency::total   4139950500                       # number of demand (read+write) MSHR miss cycles
system.cpu.dcache.overall_mshr_miss_latency::.cpu.data   4141811500                       # number of overall MSHR miss cycles
system.cpu.dcache.overall_mshr_miss_latency::total   4141811500                       # number of overall MSHR miss cycles
system.cpu.dcache.demand_mshr_miss_rate::.cpu.data     0.001582                       # mshr miss rate for demand accesses
system.cpu.dcache.demand_mshr_miss_rate::total     0.001582                       # mshr miss rate for demand accesses
system.cpu.dcache.overall_mshr_miss_rate::.cpu.data     0.001583                       # mshr miss rate for overall accesses
system.cpu.dcache.overall_mshr_miss_rate::total     0.001583                       # mshr miss rate for overall accesses
system.cpu.dcache.demand_avg_mshr_miss_latency::.cpu.data 75001.820718                       # average overall mshr miss latency
system.cpu.dcache.demand_avg_mshr_miss_latency::total 75001.820718                       # average overall mshr miss latency
system.cpu.dcache.overall_avg_mshr_miss_latency::.cpu.data 74992.060474                       # average overall mshr miss latency
system.cpu.dcache.overall_avg_mshr_miss_latency::total 74992.060474                       # average overall mshr miss latency
system.cpu.dcache.replacements                  54206                       # number of replacements
system.cpu.dcache.ReadReq_hits::.cpu.data     20571915                       # number of ReadReq hits
system.cpu.dcache.ReadReq_hits::total        20571915                       # number of ReadReq hits
system.cpu.dcache.ReadReq_misses::.cpu.data        19489                       # number of ReadReq misses
system.cpu.dcache.ReadReq_misses::total         19489                       # number of ReadReq misses
system.cpu.dcache.ReadReq_miss_latency::.cpu.data   1033989000                       # number of ReadReq miss cycles
system.cpu.dcache.ReadReq_miss_latency::total   1033989000                       # number of ReadReq miss cycles
system.cpu.dcache.ReadReq_accesses::.cpu.data     20591404                       # number of ReadReq accesses(hits+misses)
system.cpu.dcache.ReadReq_accesses::total     20591404                       # number of ReadReq accesses(hits+misses)
system.cpu.dcache.ReadReq_miss_rate::.cpu.data     0.000946                       # miss rate for ReadReq accesses
system.cpu.dcache.ReadReq_miss_rate::total     0.000946                       # miss rate for ReadReq accesses
system.cpu.dcache.ReadReq_avg_miss_latency::.cpu.data 53055.005388                       # average ReadReq miss latency
system.cpu.dcache.ReadReq_avg_miss_latency::total 53055.005388                       # average ReadReq miss latency
system.cpu.dcache.ReadReq_mshr_hits::.cpu.data         3226                       # number of ReadReq MSHR hits
system.cpu.dcache.ReadReq_mshr_hits::total         3226                       # number of ReadReq MSHR hits
system.cpu.dcache.ReadReq_mshr_misses::.cpu.data        16263                       # number of ReadReq MSHR misses
system.cpu.dcache.ReadReq_mshr_misses::total        16263                       # number of ReadReq MSHR misses
system.cpu.dcache.ReadReq_mshr_miss_latency::.cpu.data    937537500                       # number of ReadReq MSHR miss cycles
system.cpu.dcache.ReadReq_mshr_miss_latency::total    937537500                       # number of ReadReq MSHR miss cycles
system.cpu.dcache.ReadReq_mshr_miss_rate::.cpu.data     0.000790                       # mshr miss rate for ReadReq accesses
system.cpu.dcache.ReadReq_mshr_miss_rate::total     0.000790                       # mshr miss rate for ReadReq accesses
system.cpu.dcache.ReadReq_avg_mshr_miss_latency::.cpu.data 57648.496587                       # average ReadReq mshr miss latency
system.cpu.dcache.ReadReq_avg_mshr_miss_latency::total 57648.496587                       # average ReadReq mshr miss latency
system.cpu.dcache.WriteReq_hits::.cpu.data     14243823                       # number of WriteReq hits
system.cpu.dcache.WriteReq_hits::total       14243823                       # number of WriteReq hits
system.cpu.dcache.WriteReq_misses::.cpu.data        55571                       # number of WriteReq misses
system.cpu.dcache.WriteReq_misses::total        55571                       # number of WriteReq misses
system.cpu.dcache.WriteReq_miss_latency::.cpu.data   4349439500                       # number of WriteReq miss cycles
system.cpu.dcache.WriteReq_miss_latency::total   4349439500                       # number of WriteReq miss cycles
system.cpu.dcache.WriteReq_accesses::.cpu.data     14299394                       # number of WriteReq accesses(hits+misses)
system.cpu.dcache.WriteReq_accesses::total     14299394                       # number of WriteReq accesses(hits+misses)
system.cpu.dcache.WriteReq_miss_rate::.cpu.data     0.003886                       # miss rate for WriteReq accesses
system.cpu.dcache.WriteReq_miss_rate::total     0.003886                       # miss rate for WriteReq accesses
system.cpu.dcache.WriteReq_avg_miss_latency::.cpu.data 78268.152454                       # average WriteReq miss latency
system.cpu.dcache.WriteReq_avg_miss_latency::total 78268.152454                       # average WriteReq miss latency
system.cpu.dcache.WriteReq_mshr_hits::.cpu.data        16636                       # number of WriteReq MSHR hits
system.cpu.dcache.WriteReq_mshr_hits::total        16636                       # number of WriteReq MSHR hits
system.cpu.dcache.WriteReq_mshr_misses::.cpu.data        38935                       # number of WriteReq MSHR misses
system.cpu.dcache.WriteReq_mshr_misses::total        38935                       # number of WriteReq MSHR misses
system.cpu.dcache.WriteReq_mshr_miss_latency::.cpu.data   3202413000                       # number of WriteReq MSHR miss cycles
system.cpu.dcache.WriteReq_mshr_miss_latency::total   3202413000                       # number of WriteReq MSHR miss cycles
system.cpu.dcache.WriteReq_mshr_miss_rate::.cpu.data     0.002723                       # mshr miss rate for WriteReq accesses
system.cpu.dcache.WriteReq_mshr_miss_rate::total     0.002723                       # mshr miss rate for WriteReq accesses
system.cpu.dcache.WriteReq_avg_mshr_miss_latency::.cpu.data 82250.237575                       # average WriteReq mshr miss latency
system.cpu.dcache.WriteReq_avg_mshr_miss_latency::total 82250.237575                       # average WriteReq mshr miss latency
system.cpu.dcache.SoftPFReq_hits::.cpu.data         3327                       # number of SoftPFReq hits
system.cpu.dcache.SoftPFReq_hits::total          3327                       # number of SoftPFReq hits
system.cpu.dcache.SoftPFReq_misses::.cpu.data           38                       # number of SoftPFReq misses
system.cpu.dcache.SoftPFReq_misses::total           38                       # number of SoftPFReq misses
system.cpu.dcache.SoftPFReq_accesses::.cpu.data         3365                       # number of SoftPFReq accesses(hits+misses)
system.cpu.dcache.SoftPFReq_accesses::total         3365                       # number of SoftPFReq accesses(hits+misses)
system.cpu.dcache.SoftPFReq_miss_rate::.cpu.data     0.011293                       # miss rate for SoftPFReq accesses
system.cpu.dcache.SoftPFReq_miss_rate::total     0.011293                       # miss rate for SoftPFReq accesses
system.cpu.dcache.SoftPFReq_mshr_misses::.cpu.data           32                       # number of SoftPFReq MSHR misses
system.cpu.dcache.SoftPFReq_mshr_misses::total           32                       # number of SoftPFReq MSHR misses
system.cpu.dcache.SoftPFReq_mshr_miss_latency::.cpu.data      1861000                       # number of SoftPFReq MSHR miss cycles
system.cpu.dcache.SoftPFReq_mshr_miss_latency::total      1861000                       # number of SoftPFReq MSHR miss cycles
system.cpu.dcache.SoftPFReq_mshr_miss_rate::.cpu.data     0.009510                       # mshr miss rate for SoftPFReq accesses
system.cpu.dcache.SoftPFReq_mshr_miss_rate::total     0.009510                       # mshr miss rate for SoftPFReq accesses
system.cpu.dcache.SoftPFReq_avg_mshr_miss_latency::.cpu.data 58156.250000                       # average SoftPFReq mshr miss latency
system.cpu.dcache.SoftPFReq_avg_mshr_miss_latency::total 58156.250000                       # average SoftPFReq mshr miss latency
system.cpu.dcache.LoadLockedReq_hits::.cpu.data        89080                       # number of LoadLockedReq hits
system.cpu.dcache.LoadLockedReq_hits::total        89080                       # number of LoadLockedReq hits
system.cpu.dcache.LoadLockedReq_accesses::.cpu.data        89080                       # number of LoadLockedReq accesses(hits+misses)
system.cpu.dcache.LoadLockedReq_accesses::total        89080                       # number of LoadLockedReq accesses(hits+misses)
system.cpu.dcache.StoreCondReq_hits::.cpu.data        89080                       # number of StoreCondReq hits
system.cpu.dcache.StoreCondReq_hits::total        89080                       # number of StoreCondReq hits
system.cpu.dcache.StoreCondReq_accesses::.cpu.data        89080                       # number of StoreCondReq accesses(hits+misses)
system.cpu.dcache.StoreCondReq_accesses::total        89080                       # number of StoreCondReq accesses(hits+misses)
system.cpu.dcache.tags.pwrStateResidencyTicks::UNDEFINED  65473052000                       # Cumulative time (in ticks) in various power states
system.cpu.dcache.tags.tagsinuse          1020.463037                       # Cycle average of tags in use
system.cpu.dcache.tags.total_refs            35052455                       # Total number of references to valid blocks.
system.cpu.dcache.tags.sampled_refs             55230                       # Sample count of references to valid blocks.
system.cpu.dcache.tags.avg_refs            634.663317                       # Average number of references to valid blocks.
system.cpu.dcache.tags.warmup_cycle            195500                       # Cycle when the warmup percentage was hit.
system.cpu.dcache.tags.occ_blocks::.cpu.data  1020.463037                       # Average occupied blocks per requestor
system.cpu.dcache.tags.occ_percent::.cpu.data     0.996546                       # Average percentage of cache occupancy
system.cpu.dcache.tags.occ_percent::total     0.996546                       # Average percentage of cache occupancy
system.cpu.dcache.tags.occ_task_id_blocks::1024         1024                       # Occupied blocks per task id
system.cpu.dcache.tags.age_task_id_blocks_1024::0            4                       # Occupied blocks per task id
system.cpu.dcache.tags.age_task_id_blocks_1024::1           49                       # Occupied blocks per task id
system.cpu.dcache.tags.age_task_id_blocks_1024::2          450                       # Occupied blocks per task id
system.cpu.dcache.tags.age_task_id_blocks_1024::3          485                       # Occupied blocks per task id
system.cpu.dcache.tags.age_task_id_blocks_1024::4           36                       # Occupied blocks per task id
system.cpu.dcache.tags.occ_task_id_percent::1024            1                       # Percentage of cache occupancy per task id
system.cpu.dcache.tags.tag_accesses          70199876                       # Number of tag accesses
system.cpu.dcache.tags.data_accesses         70199876                       # Number of data accesses
system.cpu.itb.walker.pwrStateResidencyTicks::UNDEFINED  65473052000                       # Cumulative time (in ticks) in various power states
system.cpu.itb.stage2_mmu.stage2_tlb.walker.pwrStateResidencyTicks::UNDEFINED  65473052000                       # Cumulative time (in ticks) in various power states

---------- End Simulation Statistics   ----------
