
---------- Begin Simulation Statistics ----------
final_tick                                65735584500                       # Number of ticks from beginning of simulation (restored from checkpoints and never reset)
host_inst_rate                                 150659                       # Simulator instruction rate (inst/s)
host_mem_usage                                 680860                       # Number of bytes of host memory used
host_op_rate                                   164869                       # Simulator op (including micro ops) rate (op/s)
host_seconds                                   663.75                       # Real time elapsed on the host
host_tick_rate                               99036463                       # Simulator tick rate (ticks/s)
sim_freq                                 1000000000000                       # Frequency of simulated ticks
sim_insts                                   100000000                       # Number of instructions simulated
sim_ops                                     109432207                       # Number of ops (including micro ops) simulated
sim_seconds                                  0.065736                       # Number of seconds simulated
sim_ticks                                 65735584500                       # Number of ticks simulated
system.cpu.branchPred.BTBCorrect                    0                       # Number of correct BTB predictions (this stat may not work properly.
system.cpu.branchPred.BTBHitPct             88.090744                       # BTB Hit Percentage
system.cpu.branchPred.BTBHits                 8691083                       # Number of BTB hits
system.cpu.branchPred.BTBLookups              9866057                       # Number of BTB lookups
system.cpu.branchPred.RASInCorrect                345                       # Number of incorrect RAS predictions.
system.cpu.branchPred.condIncorrect            142534                       # Number of conditional branches incorrect
system.cpu.branchPred.condPredicted          16333314                       # Number of conditional branches predicted
system.cpu.branchPred.indirectHits             300047                       # Number of indirect target hits.
system.cpu.branchPred.indirectLookups          434126                       # Number of indirect predictor lookups.
system.cpu.branchPred.indirectMisses           134079                       # Number of indirect misses.
system.cpu.branchPred.lookups                20395889                       # Number of BP lookups
system.cpu.branchPred.usedRAS                 1050753                       # Number of times the RAS was used to get a target.
system.cpu.branchPredindirectMispredicted         1068                       # Number of mispredicted indirect branches.
system.cpu.committedInsts                   100000000                       # Number of instructions committed
system.cpu.committedOps                     109432207                       # Number of ops (including micro ops) committed
system.cpu.cpi                               1.314712                       # CPI: cycles per instruction
system.cpu.discardedOps                        690637                       # Number of ops (including micro ops) which were discarded before commit
system.cpu.dtb.accesses                             0                       # DTB accesses
system.cpu.dtb.align_faults                         0                       # Number of TLB faults due to alignment restrictions
system.cpu.dtb.domain_faults                        0                       # Number of TLB faults due to domain restrictions
system.cpu.dtb.flush_entries                        0                       # Number of entries that have been flushed from TLB
system.cpu.dtb.flush_tlb                            0                       # Number of times complete TLB was flushed
system.cpu.dtb.flush_tlb_asid                       0                       # Number of times TLB was flushed by ASID
system.cpu.dtb.flush_tlb_mva                        0                       # Number of times TLB was flushed by MVA
system.cpu.dtb.flush_tlb_mva_asid                   0                       # Number of times TLB was flushed by MVA & ASID
system.cpu.dtb.hits                                 0                       # DTB hits
system.cpu.dtb.inst_accesses                        0                       # ITB inst accesses
system.cpu.dtb.inst_hits                            0                       # ITB inst hits
system.cpu.dtb.inst_misses                          0                       # ITB inst misses
system.cpu.dtb.misses                               0                       # DTB misses
system.cpu.dtb.perms_faults                         0                       # Number of TLB faults due to permissions restrictions
system.cpu.dtb.prefetch_faults                      0                       # Number of TLB faults due to prefetch
system.cpu.dtb.read_accesses                        0                       # DTB read accesses
system.cpu.dtb.read_hits                            0                       # DTB read hits
system.cpu.dtb.read_misses                          0                       # DTB read misses
system.cpu.dtb.stage2_mmu.stage2_tlb.accesses            0                       # DTB accesses
system.cpu.dtb.stage2_mmu.stage2_tlb.align_faults            0                       # Number of TLB faults due to alignment restrictions
system.cpu.dtb.stage2_mmu.stage2_tlb.domain_faults            0                       # Number of TLB faults due to domain restrictions
system.cpu.dtb.stage2_mmu.stage2_tlb.flush_entries            0                       # Number of entries that have been flushed from TLB
system.cpu.dtb.stage2_mmu.stage2_tlb.flush_tlb            0                       # Number of times complete TLB was flushed
system.cpu.dtb.stage2_mmu.stage2_tlb.flush_tlb_asid            0                       # Number of times TLB was flushed by ASID
system.cpu.dtb.stage2_mmu.stage2_tlb.flush_tlb_mva            0                       # Number of times TLB was flushed by MVA
system.cpu.dtb.stage2_mmu.stage2_tlb.flush_tlb_mva_asid            0                       # Number of times TLB was flushed by MVA & ASID
system.cpu.dtb.stage2_mmu.stage2_tlb.hits            0                       # DTB hits
system.cpu.dtb.stage2_mmu.stage2_tlb.inst_accesses            0                       # ITB inst accesses
system.cpu.dtb.stage2_mmu.stage2_tlb.inst_hits            0                       # ITB inst hits
system.cpu.dtb.stage2_mmu.stage2_tlb.inst_misses            0                       # ITB inst misses
system.cpu.dtb.stage2_mmu.stage2_tlb.misses            0                       # DTB misses
system.cpu.dtb.stage2_mmu.stage2_tlb.perms_faults            0                       # Number of TLB faults due to permissions restrictions
system.cpu.dtb.stage2_mmu.stage2_tlb.prefetch_faults            0                       # Number of TLB faults due to prefetch
system.cpu.dtb.stage2_mmu.stage2_tlb.read_accesses            0                       # DTB read accesses
system.cpu.dtb.stage2_mmu.stage2_tlb.read_hits            0                       # DTB read hits
system.cpu.dtb.stage2_mmu.stage2_tlb.read_misses            0                       # DTB read misses
system.cpu.dtb.stage2_mmu.stage2_tlb.walker.walkRequestOrigin_Requested::Data            0                       # Table walker requests started/completed, data/inst
system.cpu.dtb.stage2_mmu.stage2_tlb.walker.walkRequestOrigin_Requested::Inst            0                       # Table walker requests started/completed, data/inst
system.cpu.dtb.stage2_mmu.stage2_tlb.walker.walkRequestOrigin_Requested::total            0                       # Table walker requests started/completed, data/inst
system.cpu.dtb.stage2_mmu.stage2_tlb.walker.walkRequestOrigin_Completed::Data            0                       # Table walker requests started/completed, data/inst
system.cpu.dtb.stage2_mmu.stage2_tlb.walker.walkRequestOrigin_Completed::Inst            0                       # Table walker requests started/completed, data/inst
system.cpu.dtb.stage2_mmu.stage2_tlb.walker.walkRequestOrigin_Completed::total            0                       # Table walker requests started/completed, data/inst
system.cpu.dtb.stage2_mmu.stage2_tlb.walker.walkRequestOrigin::total            0                       # Table walker requests started/completed, data/inst
system.cpu.dtb.stage2_mmu.stage2_tlb.walker.walks            0                       # Table walker walks requested
system.cpu.dtb.stage2_mmu.stage2_tlb.write_accesses            0                       # DTB write accesses
system.cpu.dtb.stage2_mmu.stage2_tlb.write_hits            0                       # DTB write hits
system.cpu.dtb.stage2_mmu.stage2_tlb.write_misses            0                       # DTB write misses
system.cpu.dtb.walker.walkRequestOrigin_Requested::Data            0                       # Table walker requests started/completed, data/inst
system.cpu.dtb.walker.walkRequestOrigin_Requested::Inst            0                       # Table walker requests started/completed, data/inst
system.cpu.dtb.walker.walkRequestOrigin_Requested::total            0                       # Table walker requests started/completed, data/inst
system.cpu.dtb.walker.walkRequestOrigin_Completed::Data            0                       # Table walker requests started/completed, data/inst
system.cpu.dtb.walker.walkRequestOrigin_Completed::Inst            0                       # Table walker requests started/completed, data/inst
system.cpu.dtb.walker.walkRequestOrigin_Completed::total            0                       # Table walker requests started/completed, data/inst
system.cpu.dtb.walker.walkRequestOrigin::total            0                       # Table walker requests started/completed, data/inst
system.cpu.dtb.walker.walks                         0                       # Table walker walks requested
system.cpu.dtb.write_accesses                       0                       # DTB write accesses
system.cpu.dtb.write_hits                           0                       # DTB write hits
system.cpu.dtb.write_misses                         0                       # DTB write misses
system.cpu.fetch2.amo_instructions                  0                       # Number of memory atomic instructions successfully decoded
system.cpu.fetch2.fp_instructions                   0                       # Number of floating point instructions successfully decoded
system.cpu.fetch2.int_instructions           49584825                       # Number of integer instructions successfully decoded
system.cpu.fetch2.load_instructions          17138030                       # Number of memory load instructions successfully decoded
system.cpu.fetch2.store_instructions          9893254                       # Number of memory store instructions successfully decoded
system.cpu.fetch2.vec_instructions                  0                       # Number of SIMD instructions successfully decoded
system.cpu.idleCycles                        15520073                       # Total number of cycles that the object has spent stopped
system.cpu.ipc                               0.760623                       # IPC: instructions per cycle
system.cpu.itb.accesses                             0                       # DTB accesses
system.cpu.itb.align_faults                         0                       # Number of TLB faults due to alignment restrictions
system.cpu.itb.domain_faults                        0                       # Number of TLB faults due to domain restrictions
system.cpu.itb.flush_entries                        0                       # Number of entries that have been flushed from TLB
system.cpu.itb.flush_tlb                            0                       # Number of times complete TLB was flushed
system.cpu.itb.flush_tlb_asid                       0                       # Number of times TLB was flushed by ASID
system.cpu.itb.flush_tlb_mva                        0                       # Number of times TLB was flushed by MVA
system.cpu.itb.flush_tlb_mva_asid                   0                       # Number of times TLB was flushed by MVA & ASID
system.cpu.itb.hits                                 0                       # DTB hits
system.cpu.itb.inst_accesses                        0                       # ITB inst accesses
system.cpu.itb.inst_hits                            0                       # ITB inst hits
system.cpu.itb.inst_misses                          0                       # ITB inst misses
system.cpu.itb.misses                               0                       # DTB misses
system.cpu.itb.perms_faults                         0                       # Number of TLB faults due to permissions restrictions
system.cpu.itb.prefetch_faults                      0                       # Number of TLB faults due to prefetch
system.cpu.itb.read_accesses                        0                       # DTB read accesses
system.cpu.itb.read_hits                            0                       # DTB read hits
system.cpu.itb.read_misses                          0                       # DTB read misses
system.cpu.itb.stage2_mmu.stage2_tlb.accesses            0                       # DTB accesses
system.cpu.itb.stage2_mmu.stage2_tlb.align_faults            0                       # Number of TLB faults due to alignment restrictions
system.cpu.itb.stage2_mmu.stage2_tlb.domain_faults            0                       # Number of TLB faults due to domain restrictions
system.cpu.itb.stage2_mmu.stage2_tlb.flush_entries            0                       # Number of entries that have been flushed from TLB
system.cpu.itb.stage2_mmu.stage2_tlb.flush_tlb            0                       # Number of times complete TLB was flushed
system.cpu.itb.stage2_mmu.stage2_tlb.flush_tlb_asid            0                       # Number of times TLB was flushed by ASID
system.cpu.itb.stage2_mmu.stage2_tlb.flush_tlb_mva            0                       # Number of times TLB was flushed by MVA
system.cpu.itb.stage2_mmu.stage2_tlb.flush_tlb_mva_asid            0                       # Number of times TLB was flushed by MVA & ASID
system.cpu.itb.stage2_mmu.stage2_tlb.hits            0                       # DTB hits
system.cpu.itb.stage2_mmu.stage2_tlb.inst_accesses            0                       # ITB inst accesses
system.cpu.itb.stage2_mmu.stage2_tlb.inst_hits            0                       # ITB inst hits
system.cpu.itb.stage2_mmu.stage2_tlb.inst_misses            0                       # ITB inst misses
system.cpu.itb.stage2_mmu.stage2_tlb.misses            0                       # DTB misses
system.cpu.itb.stage2_mmu.stage2_tlb.perms_faults            0                       # Number of TLB faults due to permissions restrictions
system.cpu.itb.stage2_mmu.stage2_tlb.prefetch_faults            0                       # Number of TLB faults due to prefetch
system.cpu.itb.stage2_mmu.stage2_tlb.read_accesses            0                       # DTB read accesses
system.cpu.itb.stage2_mmu.stage2_tlb.read_hits            0                       # DTB read hits
system.cpu.itb.stage2_mmu.stage2_tlb.read_misses            0                       # DTB read misses
system.cpu.itb.stage2_mmu.stage2_tlb.walker.walkRequestOrigin_Requested::Data            0                       # Table walker requests started/completed, data/inst
system.cpu.itb.stage2_mmu.stage2_tlb.walker.walkRequestOrigin_Requested::Inst            0                       # Table walker requests started/completed, data/inst
system.cpu.itb.stage2_mmu.stage2_tlb.walker.walkRequestOrigin_Requested::total            0                       # Table walker requests started/completed, data/inst
system.cpu.itb.stage2_mmu.stage2_tlb.walker.walkRequestOrigin_Completed::Data            0                       # Table walker requests started/completed, data/inst
system.cpu.itb.stage2_mmu.stage2_tlb.walker.walkRequestOrigin_Completed::Inst            0                       # Table walker requests started/completed, data/inst
system.cpu.itb.stage2_mmu.stage2_tlb.walker.walkRequestOrigin_Completed::total            0                       # Table walker requests started/completed, data/inst
system.cpu.itb.stage2_mmu.stage2_tlb.walker.walkRequestOrigin::total            0                       # Table walker requests started/completed, data/inst
system.cpu.itb.stage2_mmu.stage2_tlb.walker.walks            0                       # Table walker walks requested
system.cpu.itb.stage2_mmu.stage2_tlb.write_accesses            0                       # DTB write accesses
system.cpu.itb.stage2_mmu.stage2_tlb.write_hits            0                       # DTB write hits
system.cpu.itb.stage2_mmu.stage2_tlb.write_misses            0                       # DTB write misses
system.cpu.itb.walker.walkRequestOrigin_Requested::Data            0                       # Table walker requests started/completed, data/inst
system.cpu.itb.walker.walkRequestOrigin_Requested::Inst            0                       # Table walker requests started/completed, data/inst
system.cpu.itb.walker.walkRequestOrigin_Requested::total            0                       # Table walker requests started/completed, data/inst
system.cpu.itb.walker.walkRequestOrigin_Completed::Data            0                       # Table walker requests started/completed, data/inst
system.cpu.itb.walker.walkRequestOrigin_Completed::Inst            0                       # Table walker requests started/completed, data/inst
system.cpu.itb.walker.walkRequestOrigin_Completed::total            0                       # Table walker requests started/completed, data/inst
system.cpu.itb.walker.walkRequestOrigin::total            0                       # Table walker requests started/completed, data/inst
system.cpu.itb.walker.walks                         0                       # Table walker walks requested
system.cpu.itb.write_accesses                       0                       # DTB write accesses
system.cpu.itb.write_hits                           0                       # DTB write hits
system.cpu.itb.write_misses                         0                       # DTB write misses
system.cpu.numCycles                        131471169                       # number of cpu cycles simulated
system.cpu.numFetchSuspends                         0                       # Number of times Execute suspended instruction fetching
system.cpu.numWorkItemsCompleted                    0                       # number of work items this cpu completed
system.cpu.numWorkItemsStarted                      0                       # number of work items this cpu started
system.cpu.op_class_0::No_OpClass                   0      0.00%      0.00% # Class of committed instruction
system.cpu.op_class_0::IntAlu                72955543     66.67%     66.67% # Class of committed instruction
system.cpu.op_class_0::IntMult                 568363      0.52%     67.19% # Class of committed instruction
system.cpu.op_class_0::IntDiv                       0      0.00%     67.19% # Class of committed instruction
system.cpu.op_class_0::FloatAdd                     0      0.00%     67.19% # Class of committed instruction
system.cpu.op_class_0::FloatCmp                     0      0.00%     67.19% # Class of committed instruction
system.cpu.op_class_0::FloatCvt                     0      0.00%     67.19% # Class of committed instruction
system.cpu.op_class_0::FloatMult                    0      0.00%     67.19% # Class of committed instruction
system.cpu.op_class_0::FloatMultAcc                 0      0.00%     67.19% # Class of committed instruction
system.cpu.op_class_0::FloatDiv                     0      0.00%     67.19% # Class of committed instruction
system.cpu.op_class_0::FloatMisc                    0      0.00%     67.19% # Class of committed instruction
system.cpu.op_class_0::FloatSqrt                    0      0.00%     67.19% # Class of committed instruction
system.cpu.op_class_0::SimdAdd                 241244      0.22%     67.41% # Class of committed instruction
system.cpu.op_class_0::SimdAddAcc                   0      0.00%     67.41% # Class of committed instruction
system.cpu.op_class_0::SimdAlu                 154714      0.14%     67.55% # Class of committed instruction
system.cpu.op_class_0::SimdCmp                 120622      0.11%     67.66% # Class of committed instruction
system.cpu.op_class_0::SimdCvt                      0      0.00%     67.66% # Class of committed instruction
system.cpu.op_class_0::SimdMisc                 44543      0.04%     67.70% # Class of committed instruction
system.cpu.op_class_0::SimdMult                     0      0.00%     67.70% # Class of committed instruction
system.cpu.op_class_0::SimdMultAcc                  0      0.00%     67.70% # Class of committed instruction
system.cpu.op_class_0::SimdShift                    0      0.00%     67.70% # Class of committed instruction
system.cpu.op_class_0::SimdShiftAcc                 0      0.00%     67.70% # Class of committed instruction
system.cpu.op_class_0::SimdDiv                      0      0.00%     67.70% # Class of committed instruction
system.cpu.op_class_0::SimdSqrt                     0      0.00%     67.70% # Class of committed instruction
system.cpu.op_class_0::SimdFloatAdd                 0      0.00%     67.70% # Class of committed instruction
system.cpu.op_class_0::SimdFloatAlu                 0      0.00%     67.70% # Class of committed instruction
system.cpu.op_class_0::SimdFloatCmp                 0      0.00%     67.70% # Class of committed instruction
system.cpu.op_class_0::SimdFloatCvt                 0      0.00%     67.70% # Class of committed instruction
system.cpu.op_class_0::SimdFloatDiv                 0      0.00%     67.70% # Class of committed instruction
system.cpu.op_class_0::SimdFloatMisc           166460      0.15%     67.85% # Class of committed instruction
system.cpu.op_class_0::SimdFloatMult                0      0.00%     67.85% # Class of committed instruction
system.cpu.op_class_0::SimdFloatMultAcc             0      0.00%     67.85% # Class of committed instruction
system.cpu.op_class_0::SimdFloatSqrt                0      0.00%     67.85% # Class of committed instruction
system.cpu.op_class_0::SimdReduceAdd                0      0.00%     67.85% # Class of committed instruction
system.cpu.op_class_0::SimdReduceAlu                0      0.00%     67.85% # Class of committed instruction
system.cpu.op_class_0::SimdReduceCmp                0      0.00%     67.85% # Class of committed instruction
system.cpu.op_class_0::SimdFloatReduceAdd            0      0.00%     67.85% # Class of committed instruction
system.cpu.op_class_0::SimdFloatReduceCmp            0      0.00%     67.85% # Class of committed instruction
system.cpu.op_class_0::SimdAes                      0      0.00%     67.85% # Class of committed instruction
system.cpu.op_class_0::SimdAesMix                   0      0.00%     67.85% # Class of committed instruction
system.cpu.op_class_0::SimdSha1Hash                 0      0.00%     67.85% # Class of committed instruction
system.cpu.op_class_0::SimdSha1Hash2                0      0.00%     67.85% # Class of committed instruction
system.cpu.op_class_0::SimdSha256Hash               0      0.00%     67.85% # Class of committed instruction
system.cpu.op_class_0::SimdSha256Hash2              0      0.00%     67.85% # Class of committed instruction
system.cpu.op_class_0::SimdShaSigma2                0      0.00%     67.85% # Class of committed instruction
system.cpu.op_class_0::SimdShaSigma3                0      0.00%     67.85% # Class of committed instruction
system.cpu.op_class_0::SimdPredAlu                  0      0.00%     67.85% # Class of committed instruction
system.cpu.op_class_0::MemRead               20646475     18.87%     86.72% # Class of committed instruction
system.cpu.op_class_0::MemWrite              14534243     13.28%    100.00% # Class of committed instruction
system.cpu.op_class_0::FloatMemRead                 0      0.00%    100.00% # Class of committed instruction
system.cpu.op_class_0::FloatMemWrite                0      0.00%    100.00% # Class of committed instruction
system.cpu.op_class_0::IprAccess                    0      0.00%    100.00% # Class of committed instruction
system.cpu.op_class_0::InstPrefetch                 0      0.00%    100.00% # Class of committed instruction
system.cpu.op_class_0::total                109432207                       # Class of committed instruction
system.cpu.tickCycles                       115951096                       # Number of cycles that the object actually ticked
system.cpu.workload.numSyscalls                   115                       # Number of system calls
system.membus.snoop_filter.hit_multi_requests            0                       # Number of requests hitting in the snoop filter with multiple (>1) holders of the requested data.
system.membus.snoop_filter.hit_multi_snoops            0                       # Number of snoops hitting in the snoop filter with multiple (>1) holders of the requested data.
system.membus.snoop_filter.hit_single_requests        50589                       # Number of requests hitting in the snoop filter with a single holder of the requested data.
system.membus.snoop_filter.hit_single_snoops            0                       # Number of snoops hitting in the snoop filter with a single holder of the requested data.
system.membus.snoop_filter.tot_requests        103123                       # Total number of requests made to the snoop filter.
system.membus.snoop_filter.tot_snoops               0                       # Total number of snoops made to the snoop filter.
system.tol2bus.snoop_filter.hit_multi_requests           29                       # Number of requests hitting in the snoop filter with multiple (>1) holders of the requested data.
system.tol2bus.snoop_filter.hit_multi_snoops           19                       # Number of snoops hitting in the snoop filter with multiple (>1) holders of the requested data.
system.tol2bus.snoop_filter.hit_single_requests       722711                       # Number of requests hitting in the snoop filter with a single holder of the requested data.
system.tol2bus.snoop_filter.hit_single_snoops        43856                       # Number of snoops hitting in the snoop filter with a single holder of the requested data.
system.tol2bus.snoop_filter.tot_requests      1446836                       # Total number of requests made to the snoop filter.
system.tol2bus.snoop_filter.tot_snoops          43875                       # Total number of snoops made to the snoop filter.
system.membus.pwrStateResidencyTicks::UNDEFINED  65735584500                       # Cumulative time (in ticks) in various power states
system.membus.trans_dist::ReadResp              13728                       # Transaction distribution
system.membus.trans_dist::WritebackDirty        47558                       # Transaction distribution
system.membus.trans_dist::CleanEvict             3026                       # Transaction distribution
system.membus.trans_dist::ReadExReq             38811                       # Transaction distribution
system.membus.trans_dist::ReadExResp            38811                       # Transaction distribution
system.membus.trans_dist::ReadSharedReq         13728                       # Transaction distribution
system.membus.pkt_count_system.l2.mem_side::system.mem_ctrls.port       155662                       # Packet count per connected master and slave (bytes)
system.membus.pkt_count::total                 155662                       # Packet count per connected master and slave (bytes)
system.membus.pkt_size_system.l2.mem_side::system.mem_ctrls.port      6406208                       # Cumulative packet size per connected master and slave (bytes)
system.membus.pkt_size::total                 6406208                       # Cumulative packet size per connected master and slave (bytes)
system.membus.snoops                                0                       # Total snoops (count)
system.membus.snoopTraffic                          0                       # Total snoop traffic (bytes)
system.membus.snoop_fanout::samples             52539                       # Request fanout histogram
system.membus.snoop_fanout::mean                    0                       # Request fanout histogram
system.membus.snoop_fanout::stdev                   0                       # Request fanout histogram
system.membus.snoop_fanout::underflows              0      0.00%      0.00% # Request fanout histogram
system.membus.snoop_fanout::0                   52539    100.00%    100.00% # Request fanout histogram
system.membus.snoop_fanout::1                       0      0.00%    100.00% # Request fanout histogram
system.membus.snoop_fanout::overflows               0      0.00%    100.00% # Request fanout histogram
system.membus.snoop_fanout::min_value               0                       # Request fanout histogram
system.membus.snoop_fanout::max_value               0                       # Request fanout histogram
system.membus.snoop_fanout::total               52539                       # Request fanout histogram
system.membus.respLayer1.occupancy          282699000                       # Layer occupancy (ticks)
system.membus.respLayer1.utilization              0.4                       # Layer utilization (%)
system.membus.reqLayer0.occupancy           306296000                       # Layer occupancy (ticks)
system.membus.reqLayer0.utilization               0.5                       # Layer utilization (%)
system.tol2bus.pwrStateResidencyTicks::UNDEFINED  65735584500                       # Cumulative time (in ticks) in various power states
system.tol2bus.trans_dist::ReadResp            685194                       # Transaction distribution
system.tol2bus.trans_dist::WritebackDirty        97917                       # Transaction distribution
system.tol2bus.trans_dist::WritebackClean       668501                       # Transaction distribution
system.tol2bus.trans_dist::CleanEvict           48182                       # Transaction distribution
system.tol2bus.trans_dist::ReadExReq            38935                       # Transaction distribution
system.tol2bus.trans_dist::ReadExResp           38935                       # Transaction distribution
system.tol2bus.trans_dist::ReadCleanReq        668899                       # Transaction distribution
system.tol2bus.trans_dist::ReadSharedReq        16295                       # Transaction distribution
system.tol2bus.pkt_count_system.cpu.icache.mem_side::system.l2.cpu_side      2006299                       # Packet count per connected master and slave (bytes)
system.tol2bus.pkt_count_system.cpu.dcache.mem_side::system.l2.cpu_side       164666                       # Packet count per connected master and slave (bytes)
system.tol2bus.pkt_count::total               2170965                       # Packet count per connected master and slave (bytes)
system.tol2bus.pkt_size_system.cpu.icache.mem_side::system.l2.cpu_side     85593600                       # Cumulative packet size per connected master and slave (bytes)
system.tol2bus.pkt_size_system.cpu.dcache.mem_side::system.l2.cpu_side      6757696                       # Cumulative packet size per connected master and slave (bytes)
system.tol2bus.pkt_size::total               92351296                       # Cumulative packet size per connected master and slave (bytes)
system.tol2bus.snoops                           91893                       # Total snoops (count)
system.tol2bus.snoopTraffic                   3043712                       # Total snoop traffic (bytes)
system.tol2bus.snoop_fanout::samples           816022                       # Request fanout histogram
system.tol2bus.snoop_fanout::mean            0.053831                       # Request fanout histogram
system.tol2bus.snoop_fanout::stdev           0.225787                       # Request fanout histogram
system.tol2bus.snoop_fanout::underflows             0      0.00%      0.00% # Request fanout histogram
system.tol2bus.snoop_fanout::0                 772114     94.62%     94.62% # Request fanout histogram
system.tol2bus.snoop_fanout::1                  43889      5.38%    100.00% # Request fanout histogram
system.tol2bus.snoop_fanout::2                     19      0.00%    100.00% # Request fanout histogram
system.tol2bus.snoop_fanout::overflows              0      0.00%    100.00% # Request fanout histogram
system.tol2bus.snoop_fanout::min_value              0                       # Request fanout histogram
system.tol2bus.snoop_fanout::max_value              2                       # Request fanout histogram
system.tol2bus.snoop_fanout::total             816022                       # Request fanout histogram
system.tol2bus.reqLayer0.occupancy         1442278000                       # Layer occupancy (ticks)
system.tol2bus.reqLayer0.utilization              2.2                       # Layer utilization (%)
system.tol2bus.respLayer1.occupancy          82847495                       # Layer occupancy (ticks)
system.tol2bus.respLayer1.utilization             0.1                       # Layer utilization (%)
system.tol2bus.respLayer0.occupancy        1003348999                       # Layer occupancy (ticks)
system.tol2bus.respLayer0.utilization             1.5                       # Layer utilization (%)
system.voltage_domain.voltage                       1                       # Voltage in Volts
system.clk_domain.clock                          1000                       # Clock period in ticks
system.l2.pwrStateResidencyTicks::UNDEFINED  65735584500                       # Cumulative time (in ticks) in various power states
system.l2.demand_hits::.cpu.inst               668258                       # number of demand (read+write) hits
system.l2.demand_hits::.cpu.data                 3326                       # number of demand (read+write) hits
system.l2.demand_hits::total                   671584                       # number of demand (read+write) hits
system.l2.overall_hits::.cpu.inst              668258                       # number of overall hits
system.l2.overall_hits::.cpu.data                3326                       # number of overall hits
system.l2.overall_hits::total                  671584                       # number of overall hits
system.l2.demand_misses::.cpu.inst                641                       # number of demand (read+write) misses
system.l2.demand_misses::.cpu.data              51904                       # number of demand (read+write) misses
system.l2.demand_misses::total                  52545                       # number of demand (read+write) misses
system.l2.overall_misses::.cpu.inst               641                       # number of overall misses
system.l2.overall_misses::.cpu.data             51904                       # number of overall misses
system.l2.overall_misses::total                 52545                       # number of overall misses
system.l2.demand_miss_latency::.cpu.inst     49993500                       # number of demand (read+write) miss cycles
system.l2.demand_miss_latency::.cpu.data   4289140500                       # number of demand (read+write) miss cycles
system.l2.demand_miss_latency::total       4339134000                       # number of demand (read+write) miss cycles
system.l2.overall_miss_latency::.cpu.inst     49993500                       # number of overall miss cycles
system.l2.overall_miss_latency::.cpu.data   4289140500                       # number of overall miss cycles
system.l2.overall_miss_latency::total      4339134000                       # number of overall miss cycles
system.l2.demand_accesses::.cpu.inst           668899                       # number of demand (read+write) accesses
system.l2.demand_accesses::.cpu.data            55230                       # number of demand (read+write) accesses
system.l2.demand_accesses::total               724129                       # number of demand (read+write) accesses
system.l2.overall_accesses::.cpu.inst          668899                       # number of overall (read+write) accesses
system.l2.overall_accesses::.cpu.data           55230                       # number of overall (read+write) accesses
system.l2.overall_accesses::total              724129                       # number of overall (read+write) accesses
system.l2.demand_miss_rate::.cpu.inst        0.000958                       # miss rate for demand accesses
system.l2.demand_miss_rate::.cpu.data        0.939779                       # miss rate for demand accesses
system.l2.demand_miss_rate::total            0.072563                       # miss rate for demand accesses
system.l2.overall_miss_rate::.cpu.inst       0.000958                       # miss rate for overall accesses
system.l2.overall_miss_rate::.cpu.data       0.939779                       # miss rate for overall accesses
system.l2.overall_miss_rate::total           0.072563                       # miss rate for overall accesses
system.l2.demand_avg_miss_latency::.cpu.inst 77992.979719                       # average overall miss latency
system.l2.demand_avg_miss_latency::.cpu.data 82636.029978                       # average overall miss latency
system.l2.demand_avg_miss_latency::total 82579.389095                       # average overall miss latency
system.l2.overall_avg_miss_latency::.cpu.inst 77992.979719                       # average overall miss latency
system.l2.overall_avg_miss_latency::.cpu.data 82636.029978                       # average overall miss latency
system.l2.overall_avg_miss_latency::total 82579.389095                       # average overall miss latency
system.l2.blocked_cycles::no_mshrs                  0                       # number of cycles access was blocked
system.l2.blocked_cycles::no_targets                0                       # number of cycles access was blocked
system.l2.blocked::no_mshrs                         0                       # number of cycles access was blocked
system.l2.blocked::no_targets                       0                       # number of cycles access was blocked
system.l2.avg_blocked_cycles::no_mshrs            nan                       # average number of cycles each access was blocked
system.l2.avg_blocked_cycles::no_targets          nan                       # average number of cycles each access was blocked
system.l2.writebacks::.writebacks               47558                       # number of writebacks
system.l2.writebacks::total                     47558                       # number of writebacks
system.l2.demand_mshr_hits::.cpu.inst               1                       # number of demand (read+write) MSHR hits
system.l2.demand_mshr_hits::.cpu.data               5                       # number of demand (read+write) MSHR hits
system.l2.demand_mshr_hits::total                   6                       # number of demand (read+write) MSHR hits
system.l2.overall_mshr_hits::.cpu.inst              1                       # number of overall MSHR hits
system.l2.overall_mshr_hits::.cpu.data              5                       # number of overall MSHR hits
system.l2.overall_mshr_hits::total                  6                       # number of overall MSHR hits
system.l2.demand_mshr_misses::.cpu.inst           640                       # number of demand (read+write) MSHR misses
system.l2.demand_mshr_misses::.cpu.data         51899                       # number of demand (read+write) MSHR misses
system.l2.demand_mshr_misses::total             52539                       # number of demand (read+write) MSHR misses
system.l2.overall_mshr_misses::.cpu.inst          640                       # number of overall MSHR misses
system.l2.overall_mshr_misses::.cpu.data        51899                       # number of overall MSHR misses
system.l2.overall_mshr_misses::total            52539                       # number of overall MSHR misses
system.l2.demand_mshr_miss_latency::.cpu.inst     43529000                       # number of demand (read+write) MSHR miss cycles
system.l2.demand_mshr_miss_latency::.cpu.data   3769823500                       # number of demand (read+write) MSHR miss cycles
system.l2.demand_mshr_miss_latency::total   3813352500                       # number of demand (read+write) MSHR miss cycles
system.l2.overall_mshr_miss_latency::.cpu.inst     43529000                       # number of overall MSHR miss cycles
system.l2.overall_mshr_miss_latency::.cpu.data   3769823500                       # number of overall MSHR miss cycles
system.l2.overall_mshr_miss_latency::total   3813352500                       # number of overall MSHR miss cycles
system.l2.demand_mshr_miss_rate::.cpu.inst     0.000957                       # mshr miss rate for demand accesses
system.l2.demand_mshr_miss_rate::.cpu.data     0.939689                       # mshr miss rate for demand accesses
system.l2.demand_mshr_miss_rate::total       0.072555                       # mshr miss rate for demand accesses
system.l2.overall_mshr_miss_rate::.cpu.inst     0.000957                       # mshr miss rate for overall accesses
system.l2.overall_mshr_miss_rate::.cpu.data     0.939689                       # mshr miss rate for overall accesses
system.l2.overall_mshr_miss_rate::total      0.072555                       # mshr miss rate for overall accesses
system.l2.demand_avg_mshr_miss_latency::.cpu.inst 68014.062500                       # average overall mshr miss latency
system.l2.demand_avg_mshr_miss_latency::.cpu.data 72637.690514                       # average overall mshr miss latency
system.l2.demand_avg_mshr_miss_latency::total 72581.368127                       # average overall mshr miss latency
system.l2.overall_avg_mshr_miss_latency::.cpu.inst 68014.062500                       # average overall mshr miss latency
system.l2.overall_avg_mshr_miss_latency::.cpu.data 72637.690514                       # average overall mshr miss latency
system.l2.overall_avg_mshr_miss_latency::total 72581.368127                       # average overall mshr miss latency
system.l2.replacements                          91893                       # number of replacements
system.l2.WritebackDirty_hits::.writebacks        50359                       # number of WritebackDirty hits
system.l2.WritebackDirty_hits::total            50359                       # number of WritebackDirty hits
system.l2.WritebackDirty_accesses::.writebacks        50359                       # number of WritebackDirty accesses(hits+misses)
system.l2.WritebackDirty_accesses::total        50359                       # number of WritebackDirty accesses(hits+misses)
system.l2.WritebackClean_hits::.writebacks       668490                       # number of WritebackClean hits
system.l2.WritebackClean_hits::total           668490                       # number of WritebackClean hits
system.l2.WritebackClean_accesses::.writebacks       668490                       # number of WritebackClean accesses(hits+misses)
system.l2.WritebackClean_accesses::total       668490                       # number of WritebackClean accesses(hits+misses)
system.l2.CleanEvict_mshr_misses::.writebacks         2566                       # number of CleanEvict MSHR misses
system.l2.CleanEvict_mshr_misses::total          2566                       # number of CleanEvict MSHR misses
system.l2.CleanEvict_mshr_miss_rate::.writebacks          inf                       # mshr miss rate for CleanEvict accesses
system.l2.CleanEvict_mshr_miss_rate::total          inf                       # mshr miss rate for CleanEvict accesses
system.l2.ReadExReq_hits::.cpu.data               124                       # number of ReadExReq hits
system.l2.ReadExReq_hits::total                   124                       # number of ReadExReq hits
system.l2.ReadExReq_misses::.cpu.data           38811                       # number of ReadExReq misses
system.l2.ReadExReq_misses::total               38811                       # number of ReadExReq misses
system.l2.ReadExReq_miss_latency::.cpu.data   3108774500                       # number of ReadExReq miss cycles
system.l2.ReadExReq_miss_latency::total    3108774500                       # number of ReadExReq miss cycles
system.l2.ReadExReq_accesses::.cpu.data         38935                       # number of ReadExReq accesses(hits+misses)
system.l2.ReadExReq_accesses::total             38935                       # number of ReadExReq accesses(hits+misses)
system.l2.ReadExReq_miss_rate::.cpu.data     0.996815                       # miss rate for ReadExReq accesses
system.l2.ReadExReq_miss_rate::total         0.996815                       # miss rate for ReadExReq accesses
system.l2.ReadExReq_avg_miss_latency::.cpu.data 80100.345263                       # average ReadExReq miss latency
system.l2.ReadExReq_avg_miss_latency::total 80100.345263                       # average ReadExReq miss latency
system.l2.ReadExReq_mshr_misses::.cpu.data        38811                       # number of ReadExReq MSHR misses
system.l2.ReadExReq_mshr_misses::total          38811                       # number of ReadExReq MSHR misses
system.l2.ReadExReq_mshr_miss_latency::.cpu.data   2720664500                       # number of ReadExReq MSHR miss cycles
system.l2.ReadExReq_mshr_miss_latency::total   2720664500                       # number of ReadExReq MSHR miss cycles
system.l2.ReadExReq_mshr_miss_rate::.cpu.data     0.996815                       # mshr miss rate for ReadExReq accesses
system.l2.ReadExReq_mshr_miss_rate::total     0.996815                       # mshr miss rate for ReadExReq accesses
system.l2.ReadExReq_avg_mshr_miss_latency::.cpu.data 70100.345263                       # average ReadExReq mshr miss latency
system.l2.ReadExReq_avg_mshr_miss_latency::total 70100.345263                       # average ReadExReq mshr miss latency
system.l2.ReadCleanReq_hits::.cpu.inst         668258                       # number of ReadCleanReq hits
system.l2.ReadCleanReq_hits::total             668258                       # number of ReadCleanReq hits
system.l2.ReadCleanReq_misses::.cpu.inst          641                       # number of ReadCleanReq misses
system.l2.ReadCleanReq_misses::total              641                       # number of ReadCleanReq misses
system.l2.ReadCleanReq_miss_latency::.cpu.inst     49993500                       # number of ReadCleanReq miss cycles
system.l2.ReadCleanReq_miss_latency::total     49993500                       # number of ReadCleanReq miss cycles
system.l2.ReadCleanReq_accesses::.cpu.inst       668899                       # number of ReadCleanReq accesses(hits+misses)
system.l2.ReadCleanReq_accesses::total         668899                       # number of ReadCleanReq accesses(hits+misses)
system.l2.ReadCleanReq_miss_rate::.cpu.inst     0.000958                       # miss rate for ReadCleanReq accesses
system.l2.ReadCleanReq_miss_rate::total      0.000958                       # miss rate for ReadCleanReq accesses
system.l2.ReadCleanReq_avg_miss_latency::.cpu.inst 77992.979719                       # average ReadCleanReq miss latency
system.l2.ReadCleanReq_avg_miss_latency::total 77992.979719                       # average ReadCleanReq miss latency
system.l2.ReadCleanReq_mshr_hits::.cpu.inst            1                       # number of ReadCleanReq MSHR hits
system.l2.ReadCleanReq_mshr_hits::total             1                       # number of ReadCleanReq MSHR hits
system.l2.ReadCleanReq_mshr_misses::.cpu.inst          640                       # number of ReadCleanReq MSHR misses
system.l2.ReadCleanReq_mshr_misses::total          640                       # number of ReadCleanReq MSHR misses
system.l2.ReadCleanReq_mshr_miss_latency::.cpu.inst     43529000                       # number of ReadCleanReq MSHR miss cycles
system.l2.ReadCleanReq_mshr_miss_latency::total     43529000                       # number of ReadCleanReq MSHR miss cycles
system.l2.ReadCleanReq_mshr_miss_rate::.cpu.inst     0.000957                       # mshr miss rate for ReadCleanReq accesses
system.l2.ReadCleanReq_mshr_miss_rate::total     0.000957                       # mshr miss rate for ReadCleanReq accesses
system.l2.ReadCleanReq_avg_mshr_miss_latency::.cpu.inst 68014.062500                       # average ReadCleanReq mshr miss latency
system.l2.ReadCleanReq_avg_mshr_miss_latency::total 68014.062500                       # average ReadCleanReq mshr miss latency
system.l2.ReadSharedReq_hits::.cpu.data          3202                       # number of ReadSharedReq hits
system.l2.ReadSharedReq_hits::total              3202                       # number of ReadSharedReq hits
system.l2.ReadSharedReq_misses::.cpu.data        13093                       # number of ReadSharedReq misses
system.l2.ReadSharedReq_misses::total           13093                       # number of ReadSharedReq misses
system.l2.ReadSharedReq_miss_latency::.cpu.data   1180366000                       # number of ReadSharedReq miss cycles
system.l2.ReadSharedReq_miss_latency::total   1180366000                       # number of ReadSharedReq miss cycles
system.l2.ReadSharedReq_accesses::.cpu.data        16295                       # number of ReadSharedReq accesses(hits+misses)
system.l2.ReadSharedReq_accesses::total         16295                       # number of ReadSharedReq accesses(hits+misses)
system.l2.ReadSharedReq_miss_rate::.cpu.data     0.803498                       # miss rate for ReadSharedReq accesses
system.l2.ReadSharedReq_miss_rate::total     0.803498                       # miss rate for ReadSharedReq accesses
system.l2.ReadSharedReq_avg_miss_latency::.cpu.data 90152.447873                       # average ReadSharedReq miss latency
system.l2.ReadSharedReq_avg_miss_latency::total 90152.447873                       # average ReadSharedReq miss latency
system.l2.ReadSharedReq_mshr_hits::.cpu.data            5                       # number of ReadSharedReq MSHR hits
system.l2.ReadSharedReq_mshr_hits::total            5                       # number of ReadSharedReq MSHR hits
system.l2.ReadSharedReq_mshr_misses::.cpu.data        13088                       # number of ReadSharedReq MSHR misses
system.l2.ReadSharedReq_mshr_misses::total        13088                       # number of ReadSharedReq MSHR misses
system.l2.ReadSharedReq_mshr_miss_latency::.cpu.data   1049159000                       # number of ReadSharedReq MSHR miss cycles
system.l2.ReadSharedReq_mshr_miss_latency::total   1049159000                       # number of ReadSharedReq MSHR miss cycles
system.l2.ReadSharedReq_mshr_miss_rate::.cpu.data     0.803191                       # mshr miss rate for ReadSharedReq accesses
system.l2.ReadSharedReq_mshr_miss_rate::total     0.803191                       # mshr miss rate for ReadSharedReq accesses
system.l2.ReadSharedReq_avg_mshr_miss_latency::.cpu.data 80161.904034                       # average ReadSharedReq mshr miss latency
system.l2.ReadSharedReq_avg_mshr_miss_latency::total 80161.904034                       # average ReadSharedReq mshr miss latency
system.l2.tags.pwrStateResidencyTicks::UNDEFINED  65735584500                       # Cumulative time (in ticks) in various power states
system.l2.tags.tagsinuse                  1022.856470                       # Cycle average of tags in use
system.l2.tags.total_refs                     1444235                       # Total number of references to valid blocks.
system.l2.tags.sampled_refs                     92917                       # Sample count of references to valid blocks.
system.l2.tags.avg_refs                     15.543281                       # Average number of references to valid blocks.
system.l2.tags.warmup_cycle                     77000                       # Cycle when the warmup percentage was hit.
system.l2.tags.occ_blocks::.writebacks     436.539701                       # Average occupied blocks per requestor
system.l2.tags.occ_blocks::.cpu.inst        18.625955                       # Average occupied blocks per requestor
system.l2.tags.occ_blocks::.cpu.data       567.690814                       # Average occupied blocks per requestor
system.l2.tags.occ_percent::.writebacks      0.426308                       # Average percentage of cache occupancy
system.l2.tags.occ_percent::.cpu.inst        0.018189                       # Average percentage of cache occupancy
system.l2.tags.occ_percent::.cpu.data        0.554386                       # Average percentage of cache occupancy
system.l2.tags.occ_percent::total            0.998883                       # Average percentage of cache occupancy
system.l2.tags.occ_task_id_blocks::1024          1024                       # Occupied blocks per task id
system.l2.tags.age_task_id_blocks_1024::0            5                       # Occupied blocks per task id
system.l2.tags.age_task_id_blocks_1024::1           58                       # Occupied blocks per task id
system.l2.tags.age_task_id_blocks_1024::2          791                       # Occupied blocks per task id
system.l2.tags.age_task_id_blocks_1024::3          155                       # Occupied blocks per task id
system.l2.tags.age_task_id_blocks_1024::4           15                       # Occupied blocks per task id
system.l2.tags.occ_task_id_percent::1024            1                       # Percentage of cache occupancy per task id
system.l2.tags.tag_accesses                  11667373                       # Number of tag accesses
system.l2.tags.data_accesses                 11667373                       # Number of data accesses
system.cpu_voltage_domain.voltage                   1                       # Voltage in Volts
system.mem_ctrls.pwrStateResidencyTicks::UNDEFINED  65735584500                       # Cumulative time (in ticks) in various power states
system.mem_ctrls.bytes_read::.cpu.inst          40960                       # Number of bytes read from this memory
system.mem_ctrls.bytes_read::.cpu.data        3321536                       # Number of bytes read from this memory
system.mem_ctrls.bytes_read::total            3362496                       # Number of bytes read from this memory
system.mem_ctrls.bytes_inst_read::.cpu.inst        40960                       # Number of instructions bytes read from this memory
system.mem_ctrls.bytes_inst_read::total         40960                       # Number of instructions bytes read from this memory
system.mem_ctrls.bytes_written::.writebacks      3043712                       # Number of bytes written to this memory
system.mem_ctrls.bytes_written::total         3043712                       # Number of bytes written to this memory
system.mem_ctrls.num_reads::.cpu.inst             640                       # Number of read requests responded to by this memory
system.mem_ctrls.num_reads::.cpu.data           51899                       # Number of read requests responded to by this memory
system.mem_ctrls.num_reads::total               52539                       # Number of read requests responded to by this memory
system.mem_ctrls.num_writes::.writebacks        47558                       # Number of write requests responded to by this memory
system.mem_ctrls.num_writes::total              47558                       # Number of write requests responded to by this memory
system.mem_ctrls.bw_read::.cpu.inst            623102                       # Total read bandwidth from this memory (bytes/s)
system.mem_ctrls.bw_read::.cpu.data          50528736                       # Total read bandwidth from this memory (bytes/s)
system.mem_ctrls.bw_read::total              51151838                       # Total read bandwidth from this memory (bytes/s)
system.mem_ctrls.bw_inst_read::.cpu.inst       623102                       # Instruction read bandwidth from this memory (bytes/s)
system.mem_ctrls.bw_inst_read::total           623102                       # Instruction read bandwidth from this memory (bytes/s)
system.mem_ctrls.bw_write::.writebacks       46302349                       # Write bandwidth from this memory (bytes/s)
system.mem_ctrls.bw_write::total             46302349                       # Write bandwidth from this memory (bytes/s)
system.mem_ctrls.bw_total::.writebacks       46302349                       # Total bandwidth to/from this memory (bytes/s)
system.mem_ctrls.bw_total::.cpu.inst           623102                       # Total bandwidth to/from this memory (bytes/s)
system.mem_ctrls.bw_total::.cpu.data         50528736                       # Total bandwidth to/from this memory (bytes/s)
system.mem_ctrls.bw_total::total             97454188                       # Total bandwidth to/from this memory (bytes/s)
system.mem_ctrls.avgPriority_.writebacks::samples     47558.00                       # Average QoS priority value for accepted requests
system.mem_ctrls.avgPriority_.cpu.inst::samples       640.00                       # Average QoS priority value for accepted requests
system.mem_ctrls.avgPriority_.cpu.data::samples     51872.00                       # Average QoS priority value for accepted requests
system.mem_ctrls.priorityMinLatency      0.000000018750                       # per QoS priority minimum request to response latency (s)
system.mem_ctrls.priorityMaxLatency      0.000585726500                       # per QoS priority maximum request to response latency (s)
system.mem_ctrls.numReadWriteTurnArounds         2671                       # Number of turnarounds from READ to WRITE
system.mem_ctrls.numWriteReadTurnArounds         2671                       # Number of turnarounds from WRITE to READ
system.mem_ctrls.numStayReadState              168226                       # Number of times bus staying in READ state
system.mem_ctrls.numStayWriteState              44909                       # Number of times bus staying in WRITE state
system.mem_ctrls.readReqs                       52539                       # Number of read requests accepted
system.mem_ctrls.writeReqs                      47558                       # Number of write requests accepted
system.mem_ctrls.readBursts                     52539                       # Number of DRAM read bursts, including those serviced by the write queue
system.mem_ctrls.writeBursts                    47558                       # Number of DRAM write bursts, including those merged in the write queue
system.mem_ctrls.servicedByWrQ                     27                       # Number of DRAM read bursts serviced by the write queue
system.mem_ctrls.mergedWrBursts                     0                       # Number of DRAM write bursts merged with an existing one
system.mem_ctrls.neitherReadNorWriteReqs            0                       # Number of requests that are neither read nor write
system.mem_ctrls.perBankRdBursts::0              3105                       # Per bank write bursts
system.mem_ctrls.perBankRdBursts::1              2978                       # Per bank write bursts
system.mem_ctrls.perBankRdBursts::2              2930                       # Per bank write bursts
system.mem_ctrls.perBankRdBursts::3              4294                       # Per bank write bursts
system.mem_ctrls.perBankRdBursts::4              4774                       # Per bank write bursts
system.mem_ctrls.perBankRdBursts::5              3055                       # Per bank write bursts
system.mem_ctrls.perBankRdBursts::6              3091                       # Per bank write bursts
system.mem_ctrls.perBankRdBursts::7              3102                       # Per bank write bursts
system.mem_ctrls.perBankRdBursts::8              3100                       # Per bank write bursts
system.mem_ctrls.perBankRdBursts::9              3208                       # Per bank write bursts
system.mem_ctrls.perBankRdBursts::10             3085                       # Per bank write bursts
system.mem_ctrls.perBankRdBursts::11             3180                       # Per bank write bursts
system.mem_ctrls.perBankRdBursts::12             3202                       # Per bank write bursts
system.mem_ctrls.perBankRdBursts::13             3126                       # Per bank write bursts
system.mem_ctrls.perBankRdBursts::14             3175                       # Per bank write bursts
system.mem_ctrls.perBankRdBursts::15             3107                       # Per bank write bursts
system.mem_ctrls.perBankWrBursts::0              2912                       # Per bank write bursts
system.mem_ctrls.perBankWrBursts::1              2887                       # Per bank write bursts
system.mem_ctrls.perBankWrBursts::2              2860                       # Per bank write bursts
system.mem_ctrls.perBankWrBursts::3              3009                       # Per bank write bursts
system.mem_ctrls.perBankWrBursts::4              3205                       # Per bank write bursts
system.mem_ctrls.perBankWrBursts::5              3005                       # Per bank write bursts
system.mem_ctrls.perBankWrBursts::6              3022                       # Per bank write bursts
system.mem_ctrls.perBankWrBursts::7              3025                       # Per bank write bursts
system.mem_ctrls.perBankWrBursts::8              3034                       # Per bank write bursts
system.mem_ctrls.perBankWrBursts::9              2935                       # Per bank write bursts
system.mem_ctrls.perBankWrBursts::10             2910                       # Per bank write bursts
system.mem_ctrls.perBankWrBursts::11             3003                       # Per bank write bursts
system.mem_ctrls.perBankWrBursts::12             2980                       # Per bank write bursts
system.mem_ctrls.perBankWrBursts::13             2912                       # Per bank write bursts
system.mem_ctrls.perBankWrBursts::14             2923                       # Per bank write bursts
system.mem_ctrls.perBankWrBursts::15             2912                       # Per bank write bursts
system.mem_ctrls.avgRdQLen                       1.10                       # Average read queue length when enqueuing
system.mem_ctrls.avgWrQLen                      24.41                       # Average write queue length when enqueuing
system.mem_ctrls.totQLat                    668230750                       # Total ticks spent queuing
system.mem_ctrls.totBusLat                  262560000                       # Total ticks spent in databus transfers
system.mem_ctrls.totMemAccLat              1652830750                       # Total ticks spent from burst creation until serviced by the DRAM
system.mem_ctrls.avgQLat                     12725.30                       # Average queueing delay per DRAM burst
system.mem_ctrls.avgBusLat                    5000.00                       # Average bus latency per DRAM burst
system.mem_ctrls.avgMemAccLat                31475.30                       # Average memory access latency per DRAM burst
system.mem_ctrls.numRdRetry                         0                       # Number of times read queue was full causing retry
system.mem_ctrls.numWrRetry                         0                       # Number of times write queue was full causing retry
system.mem_ctrls.readRowHits                    27614                       # Number of row buffer hits during reads
system.mem_ctrls.writeRowHits                   29699                       # Number of row buffer hits during writes
system.mem_ctrls.readRowHitRate                 52.59                       # Row buffer hit rate for reads
system.mem_ctrls.writeRowHitRate                62.45                       # Row buffer hit rate for writes
system.mem_ctrls.readPktSize::0                     0                       # Read request sizes (log2)
system.mem_ctrls.readPktSize::1                     0                       # Read request sizes (log2)
system.mem_ctrls.readPktSize::2                     0                       # Read request sizes (log2)
system.mem_ctrls.readPktSize::3                     0                       # Read request sizes (log2)
system.mem_ctrls.readPktSize::4                     0                       # Read request sizes (log2)
system.mem_ctrls.readPktSize::5                     0                       # Read request sizes (log2)
system.mem_ctrls.readPktSize::6                 52539                       # Read request sizes (log2)
system.mem_ctrls.writePktSize::0                    0                       # Write request sizes (log2)
system.mem_ctrls.writePktSize::1                    0                       # Write request sizes (log2)
system.mem_ctrls.writePktSize::2                    0                       # Write request sizes (log2)
system.mem_ctrls.writePktSize::3                    0                       # Write request sizes (log2)
system.mem_ctrls.writePktSize::4                    0                       # Write request sizes (log2)
system.mem_ctrls.writePktSize::5                    0                       # Write request sizes (log2)
system.mem_ctrls.writePktSize::6                47558                       # Write request sizes (log2)
system.mem_ctrls.rdQLenPdf::0                   49048                       # What read queue length does an incoming req see
system.mem_ctrls.rdQLenPdf::1                    3456                       # What read queue length does an incoming req see
system.mem_ctrls.rdQLenPdf::2                       8                       # What read queue length does an incoming req see
system.mem_ctrls.rdQLenPdf::3                       0                       # What read queue length does an incoming req see
system.mem_ctrls.rdQLenPdf::4                       0                       # What read queue length does an incoming req see
system.mem_ctrls.rdQLenPdf::5                       0                       # What read queue length does an incoming req see
system.mem_ctrls.rdQLenPdf::6                       0                       # What read queue length does an incoming req see
system.mem_ctrls.rdQLenPdf::7                       0                       # What read queue length does an incoming req see
system.mem_ctrls.rdQLenPdf::8                       0                       # What read queue length does an incoming req see
system.mem_ctrls.rdQLenPdf::9                       0                       # What read queue length does an incoming req see
system.mem_ctrls.rdQLenPdf::10                      0                       # What read queue length does an incoming req see
system.mem_ctrls.rdQLenPdf::11                      0                       # What read queue length does an incoming req see
system.mem_ctrls.rdQLenPdf::12                      0                       # What read queue length does an incoming req see
system.mem_ctrls.rdQLenPdf::13                      0                       # What read queue length does an incoming req see
system.mem_ctrls.rdQLenPdf::14                      0                       # What read queue length does an incoming req see
system.mem_ctrls.rdQLenPdf::15                      0                       # What read queue length does an incoming req see
system.mem_ctrls.rdQLenPdf::16                      0                       # What read queue length does an incoming req see
system.mem_ctrls.rdQLenPdf::17                      0                       # What read queue length does an incoming req see
system.mem_ctrls.rdQLenPdf::18                      0                       # What read queue length does an incoming req see
system.mem_ctrls.rdQLenPdf::19                      0                       # What read queue length does an incoming req see
system.mem_ctrls.rdQLenPdf::20                      0                       # What read queue length does an incoming req see
system.mem_ctrls.rdQLenPdf::21                      0                       # What read queue length does an incoming req see
system.mem_ctrls.rdQLenPdf::22                      0                       # What read queue length does an incoming req see
system.mem_ctrls.rdQLenPdf::23                      0                       # What read queue length does an incoming req see
system.mem_ctrls.rdQLenPdf::24                      0                       # What read queue length does an incoming req see
system.mem_ctrls.rdQLenPdf::25                      0                       # What read queue length does an incoming req see
system.mem_ctrls.rdQLenPdf::26                      0                       # What read queue length does an incoming req see
system.mem_ctrls.rdQLenPdf::27                      0                       # What read queue length does an incoming req see
system.mem_ctrls.rdQLenPdf::28                      0                       # What read queue length does an incoming req see
system.mem_ctrls.rdQLenPdf::29                      0                       # What read queue length does an incoming req see
system.mem_ctrls.rdQLenPdf::30                      0                       # What read queue length does an incoming req see
system.mem_ctrls.rdQLenPdf::31                      0                       # What read queue length does an incoming req see
system.mem_ctrls.wrQLenPdf::0                       1                       # What write queue length does an incoming req see
system.mem_ctrls.wrQLenPdf::1                       1                       # What write queue length does an incoming req see
system.mem_ctrls.wrQLenPdf::2                       1                       # What write queue length does an incoming req see
system.mem_ctrls.wrQLenPdf::3                       1                       # What write queue length does an incoming req see
system.mem_ctrls.wrQLenPdf::4                       1                       # What write queue length does an incoming req see
system.mem_ctrls.wrQLenPdf::5                       1                       # What write queue length does an incoming req see
system.mem_ctrls.wrQLenPdf::6                       1                       # What write queue length does an incoming req see
system.mem_ctrls.wrQLenPdf::7                       1                       # What write queue length does an incoming req see
system.mem_ctrls.wrQLenPdf::8                       1                       # What write queue length does an incoming req see
system.mem_ctrls.wrQLenPdf::9                       1                       # What write queue length does an incoming req see
system.mem_ctrls.wrQLenPdf::10                      1                       # What write queue length does an incoming req see
system.mem_ctrls.wrQLenPdf::11                      1                       # What write queue length does an incoming req see
system.mem_ctrls.wrQLenPdf::12                      1                       # What write queue length does an incoming req see
system.mem_ctrls.wrQLenPdf::13                      1                       # What write queue length does an incoming req see
system.mem_ctrls.wrQLenPdf::14                      1                       # What write queue length does an incoming req see
system.mem_ctrls.wrQLenPdf::15                   2174                       # What write queue length does an incoming req see
system.mem_ctrls.wrQLenPdf::16                   2200                       # What write queue length does an incoming req see
system.mem_ctrls.wrQLenPdf::17                   2625                       # What write queue length does an incoming req see
system.mem_ctrls.wrQLenPdf::18                   2687                       # What write queue length does an incoming req see
system.mem_ctrls.wrQLenPdf::19                   2688                       # What write queue length does an incoming req see
system.mem_ctrls.wrQLenPdf::20                   2685                       # What write queue length does an incoming req see
system.mem_ctrls.wrQLenPdf::21                   2679                       # What write queue length does an incoming req see
system.mem_ctrls.wrQLenPdf::22                   2681                       # What write queue length does an incoming req see
system.mem_ctrls.wrQLenPdf::23                   2696                       # What write queue length does an incoming req see
system.mem_ctrls.wrQLenPdf::24                   2710                       # What write queue length does an incoming req see
system.mem_ctrls.wrQLenPdf::25                   2820                       # What write queue length does an incoming req see
system.mem_ctrls.wrQLenPdf::26                   2783                       # What write queue length does an incoming req see
system.mem_ctrls.wrQLenPdf::27                   2697                       # What write queue length does an incoming req see
system.mem_ctrls.wrQLenPdf::28                   2702                       # What write queue length does an incoming req see
system.mem_ctrls.wrQLenPdf::29                   2701                       # What write queue length does an incoming req see
system.mem_ctrls.wrQLenPdf::30                   2671                       # What write queue length does an incoming req see
system.mem_ctrls.wrQLenPdf::31                   2671                       # What write queue length does an incoming req see
system.mem_ctrls.wrQLenPdf::32                   2671                       # What write queue length does an incoming req see
system.mem_ctrls.wrQLenPdf::33                      2                       # What write queue length does an incoming req see
system.mem_ctrls.wrQLenPdf::34                      0                       # What write queue length does an incoming req see
system.mem_ctrls.wrQLenPdf::35                      0                       # What write queue length does an incoming req see
system.mem_ctrls.wrQLenPdf::36                      0                       # What write queue length does an incoming req see
system.mem_ctrls.wrQLenPdf::37                      0                       # What write queue length does an incoming req see
system.mem_ctrls.wrQLenPdf::38                      0                       # What write queue length does an incoming req see
system.mem_ctrls.wrQLenPdf::39                      0                       # What write queue length does an incoming req see
system.mem_ctrls.wrQLenPdf::40                      0                       # What write queue length does an incoming req see
system.mem_ctrls.wrQLenPdf::41                      0                       # What write queue length does an incoming req see
system.mem_ctrls.wrQLenPdf::42                      0                       # What write queue length does an incoming req see
system.mem_ctrls.wrQLenPdf::43                      0                       # What write queue length does an incoming req see
system.mem_ctrls.wrQLenPdf::44                      0                       # What write queue length does an incoming req see
system.mem_ctrls.wrQLenPdf::45                      0                       # What write queue length does an incoming req see
system.mem_ctrls.wrQLenPdf::46                      0                       # What write queue length does an incoming req see
system.mem_ctrls.wrQLenPdf::47                      0                       # What write queue length does an incoming req see
system.mem_ctrls.wrQLenPdf::48                      0                       # What write queue length does an incoming req see
system.mem_ctrls.wrQLenPdf::49                      0                       # What write queue length does an incoming req see
system.mem_ctrls.wrQLenPdf::50                      0                       # What write queue length does an incoming req see
system.mem_ctrls.wrQLenPdf::51                      0                       # What write queue length does an incoming req see
system.mem_ctrls.wrQLenPdf::52                      0                       # What write queue length does an incoming req see
system.mem_ctrls.wrQLenPdf::53                      0                       # What write queue length does an incoming req see
system.mem_ctrls.wrQLenPdf::54                      0                       # What write queue length does an incoming req see
system.mem_ctrls.wrQLenPdf::55                      0                       # What write queue length does an incoming req see
system.mem_ctrls.wrQLenPdf::56                      0                       # What write queue length does an incoming req see
system.mem_ctrls.wrQLenPdf::57                      0                       # What write queue length does an incoming req see
system.mem_ctrls.wrQLenPdf::58                      0                       # What write queue length does an incoming req see
system.mem_ctrls.wrQLenPdf::59                      0                       # What write queue length does an incoming req see
system.mem_ctrls.wrQLenPdf::60                      0                       # What write queue length does an incoming req see
system.mem_ctrls.wrQLenPdf::61                      0                       # What write queue length does an incoming req see
system.mem_ctrls.wrQLenPdf::62                      0                       # What write queue length does an incoming req see
system.mem_ctrls.wrQLenPdf::63                      0                       # What write queue length does an incoming req see
system.mem_ctrls.bytesPerActivate::samples        42732                       # Bytes accessed per row activation
system.mem_ctrls.bytesPerActivate::mean    149.838060                       # Bytes accessed per row activation
system.mem_ctrls.bytesPerActivate::gmean   111.905189                       # Bytes accessed per row activation
system.mem_ctrls.bytesPerActivate::stdev   148.616910                       # Bytes accessed per row activation
system.mem_ctrls.bytesPerActivate::0-127        22662     53.03%     53.03% # Bytes accessed per row activation
system.mem_ctrls.bytesPerActivate::128-255        13294     31.11%     84.14% # Bytes accessed per row activation
system.mem_ctrls.bytesPerActivate::256-383         3544      8.29%     92.44% # Bytes accessed per row activation
system.mem_ctrls.bytesPerActivate::384-511         1249      2.92%     95.36% # Bytes accessed per row activation
system.mem_ctrls.bytesPerActivate::512-639         1137      2.66%     98.02% # Bytes accessed per row activation
system.mem_ctrls.bytesPerActivate::640-767          250      0.59%     98.61% # Bytes accessed per row activation
system.mem_ctrls.bytesPerActivate::768-895          199      0.47%     99.07% # Bytes accessed per row activation
system.mem_ctrls.bytesPerActivate::896-1023          146      0.34%     99.41% # Bytes accessed per row activation
system.mem_ctrls.bytesPerActivate::1024-1151          251      0.59%    100.00% # Bytes accessed per row activation
system.mem_ctrls.bytesPerActivate::total        42732                       # Bytes accessed per row activation
system.mem_ctrls.rdPerTurnAround::samples         2671                       # Reads before turning the bus around for writes
system.mem_ctrls.rdPerTurnAround::mean      19.655560                       # Reads before turning the bus around for writes
system.mem_ctrls.rdPerTurnAround::gmean     18.742241                       # Reads before turning the bus around for writes
system.mem_ctrls.rdPerTurnAround::stdev     35.288342                       # Reads before turning the bus around for writes
system.mem_ctrls.rdPerTurnAround::0-63           2669     99.93%     99.93% # Reads before turning the bus around for writes
system.mem_ctrls.rdPerTurnAround::64-127            1      0.04%     99.96% # Reads before turning the bus around for writes
[...]
system.cpu.icache.ReadReq_mshr_miss_latency::.cpu.inst   8070065000                       # number of ReadReq MSHR miss cycles
system.cpu.icache.ReadReq_mshr_miss_latency::total   8070065000                       # number of ReadReq MSHR miss cycles
system.cpu.icache.ReadReq_mshr_miss_rate::.cpu.inst     0.023613                       # mshr miss rate for ReadReq accesses
system.cpu.icache.ReadReq_mshr_miss_rate::total     0.023613                       # mshr miss rate for ReadReq accesses
system.cpu.icache.ReadReq_avg_mshr_miss_latency::.cpu.inst 12064.698856                       # average ReadReq mshr miss latency
system.cpu.icache.ReadReq_avg_mshr_miss_latency::total 12064.698856                       # average ReadReq mshr miss latency
system.cpu.icache.tags.pwrStateResidencyTicks::UNDEFINED  65735584500                       # Cumulative time (in ticks) in various power states
system.cpu.icache.tags.tagsinuse           397.678123                       # Cycle average of tags in use
system.cpu.icache.tags.total_refs            28327808                       # Total number of references to valid blocks.
system.cpu.icache.tags.sampled_refs            668899                       # Sample count of references to valid blocks.
system.cpu.icache.tags.avg_refs             42.349903                       # Average number of references to valid blocks.
system.cpu.icache.tags.warmup_cycle             87500                       # Cycle when the warmup percentage was hit.
system.cpu.icache.tags.occ_blocks::.cpu.inst   397.678123                       # Average occupied blocks per requestor
system.cpu.icache.tags.occ_percent::.cpu.inst     0.776715                       # Average percentage of cache occupancy
system.cpu.icache.tags.occ_percent::total     0.776715                       # Average percentage of cache occupancy
system.cpu.icache.tags.occ_task_id_blocks::1024          398                       # Occupied blocks per task id
system.cpu.icache.tags.age_task_id_blocks_1024::0           10                       # Occupied blocks per task id
system.cpu.icache.tags.age_task_id_blocks_1024::2            4                       # Occupied blocks per task id
system.cpu.icache.tags.age_task_id_blocks_1024::3            1                       # Occupied blocks per task id
system.cpu.icache.tags.age_task_id_blocks_1024::4          383                       # Occupied blocks per task id
system.cpu.icache.tags.occ_task_id_percent::1024     0.777344                       # Percentage of cache occupancy per task id
system.cpu.icache.tags.tag_accesses          57324515                       # Number of tag accesses
system.cpu.icache.tags.data_accesses         57324515                       # Number of data accesses
system.cpu.dtb.walker.pwrStateResidencyTicks::UNDEFINED  65735584500                       # Cumulative time (in ticks) in various power states
system.cpu.dtb.stage2_mmu.stage2_tlb.walker.pwrStateResidencyTicks::UNDEFINED  65735584500                       # Cumulative time (in ticks) in various power states
system.cpu.dcache.pwrStateResidencyTicks::UNDEFINED  65735584500                       # Cumulative time (in ticks) in various power states
system.cpu.dcache.demand_hits::.cpu.data     34815597                       # number of demand (read+write) hits
system.cpu.dcache.demand_hits::total         34815597                       # number of demand (read+write) hits
system.cpu.dcache.overall_hits::.cpu.data     34818924                       # number of overall hits
system.cpu.dcache.overall_hits::total        34818924                       # number of overall hits
system.cpu.dcache.demand_misses::.cpu.data        75060                       # number of demand (read+write) misses
system.cpu.dcache.demand_misses::total          75060                       # number of demand (read+write) misses
system.cpu.dcache.overall_misses::.cpu.data        75098                       # number of overall misses
system.cpu.dcache.overall_misses::total         75098                       # number of overall misses
system.cpu.dcache.demand_miss_latency::.cpu.data   5803468000                       # number of demand (read+write) miss cycles
system.cpu.dcache.demand_miss_latency::total   5803468000                       # number of demand (read+write) miss cycles
system.cpu.dcache.overall_miss_latency::.cpu.data   5803468000                       # number of overall miss cycles
system.cpu.dcache.overall_miss_latency::total   5803468000                       # number of overall miss cycles
system.cpu.dcache.demand_accesses::.cpu.data     34890657                       # number of demand (read+write) accesses
system.cpu.dcache.demand_accesses::total     34890657                       # number of demand (read+write) accesses
system.cpu.dcache.overall_accesses::.cpu.data     34894022                       # number of overall (read+write) accesses
system.cpu.dcache.overall_accesses::total     34894022                       # number of overall (read+write) accesses
system.cpu.dcache.demand_miss_rate::.cpu.data     0.002151                       # miss rate for demand accesses
system.cpu.dcache.demand_miss_rate::total     0.002151                       # miss rate for demand accesses
system.cpu.dcache.overall_miss_rate::.cpu.data     0.002152                       # miss rate for overall accesses
system.cpu.dcache.overall_miss_rate::total     0.002152                       # miss rate for overall accesses
system.cpu.dcache.demand_avg_miss_latency::.cpu.data 77317.719158                       # average overall miss latency
system.cpu.dcache.demand_avg_miss_latency::total 77317.719158                       # average overall miss latency
system.cpu.dcache.overall_avg_miss_latency::.cpu.data 77278.595968                       # average overall miss latency
system.cpu.dcache.overall_avg_miss_latency::total 77278.595968                       # average overall miss latency
system.cpu.dcache.blocked_cycles::no_mshrs            0                       # number of cycles access was blocked
system.cpu.dcache.blocked_cycles::no_targets            0                       # number of cycles access was blocked
system.cpu.dcache.blocked::no_mshrs                 0                       # number of cycles access was blocked
system.cpu.dcache.blocked::no_targets               0                       # number of cycles access was blocked
system.cpu.dcache.avg_blocked_cycles::no_mshrs          nan                       # average number of cycles each access was blocked
system.cpu.dcache.avg_blocked_cycles::no_targets          nan                       # average number of cycles each access was blocked
system.cpu.dcache.writebacks::.writebacks        50359                       # number of writebacks
system.cpu.dcache.writebacks::total             50359                       # number of writebacks
system.cpu.dcache.demand_mshr_hits::.cpu.data        19862                       # number of demand (read+write) MSHR hits
system.cpu.dcache.demand_mshr_hits::total        19862                       # number of demand (read+write) MSHR hits
system.cpu.dcache.overall_mshr_hits::.cpu.data        19862                       # number of overall MSHR hits
system.cpu.dcache.overall_mshr_hits::total        19862                       # number of overall MSHR hits
system.cpu.dcache.demand_mshr_misses::.cpu.data        55198                       # number of demand (read+write) MSHR misses
system.cpu.dcache.demand_mshr_misses::total        55198                       # number of demand (read+write) MSHR misses
system.cpu.dcache.overall_mshr_misses::.cpu.data        55230                       # number of overall MSHR misses
system.cpu.dcache.overall_mshr_misses::total        55230                       # number of overall MSHR misses
system.cpu.dcache.demand_mshr_miss_latency::.cpu.data   4404230000                       # number of demand (read+write) MSHR miss cycles
system.cpu.dcache.demand_mshr_miss_latency::total   4404230000                       # number of demand (read+write) MSHR miss cycles
system.cpu.dcache.overall_mshr_miss_latency::.cpu.data   4406921500                       # number of overall MSHR miss cycles
system.cpu.dcache.overall_mshr_miss_latency::total   4406921500                       # number of overall MSHR miss cycles
system.cpu.dcache.demand_mshr_miss_rate::.cpu.data     0.001582                       # mshr miss rate for demand accesses
system.cpu.dcache.demand_mshr_miss_rate::total     0.001582                       # mshr miss rate for demand accesses
system.cpu.dcache.overall_mshr_miss_rate::.cpu.data     0.001583                       # mshr miss rate for overall accesses
system.cpu.dcache.overall_mshr_miss_rate::total     0.001583                       # mshr miss rate for overall accesses
system.cpu.dcache.demand_avg_mshr_miss_latency::.cpu.data 79789.666292                       # average overall mshr miss latency
system.cpu.dcache.demand_avg_mshr_miss_latency::total 79789.666292                       # average overall mshr miss latency
system.cpu.dcache.overall_avg_mshr_miss_latency::.cpu.data 79792.169111                       # average overall mshr miss latency
system.cpu.dcache.overall_avg_mshr_miss_latency::total 79792.169111                       # average overall mshr miss latency
system.cpu.dcache.replacements                  54206                       # number of replacements
system.cpu.dcache.ReadReq_hits::.cpu.data     20571881                       # number of ReadReq hits
system.cpu.dcache.ReadReq_hits::total        20571881                       # number of ReadReq hits
system.cpu.dcache.ReadReq_misses::.cpu.data        19489                       # number of ReadReq misses
system.cpu.dcache.ReadReq_misses::total         19489                       # number of ReadReq misses
system.cpu.dcache.ReadReq_miss_latency::.cpu.data   1509293000                       # number of ReadReq miss cycles
system.cpu.dcache.ReadReq_miss_latency::total   1509293000                       # number of ReadReq miss cycles
system.cpu.dcache.ReadReq_accesses::.cpu.data     20591370                       # number of ReadReq accesses(hits+misses)
system.cpu.dcache.ReadReq_accesses::total     20591370                       # number of ReadReq accesses(hits+misses)
system.cpu.dcache.ReadReq_miss_rate::.cpu.data     0.000946                       # miss rate for ReadReq accesses
system.cpu.dcache.ReadReq_miss_rate::total     0.000946                       # miss rate for ReadReq accesses
system.cpu.dcache.ReadReq_avg_miss_latency::.cpu.data 77443.327005                       # average ReadReq miss latency
system.cpu.dcache.ReadReq_avg_miss_latency::total 77443.327005                       # average ReadReq miss latency
system.cpu.dcache.ReadReq_mshr_hits::.cpu.data         3226                       # number of ReadReq MSHR hits
system.cpu.dcache.ReadReq_mshr_hits::total         3226                       # number of ReadReq MSHR hits
system.cpu.dcache.ReadReq_mshr_misses::.cpu.data        16263                       # number of ReadReq MSHR misses
system.cpu.dcache.ReadReq_mshr_misses::total        16263                       # number of ReadReq MSHR misses
system.cpu.dcache.ReadReq_mshr_miss_latency::.cpu.data   1235751000                       # number of ReadReq MSHR miss cycles
system.cpu.dcache.ReadReq_mshr_miss_latency::total   1235751000                       # number of ReadReq MSHR miss cycles
system.cpu.dcache.ReadReq_mshr_miss_rate::.cpu.data     0.000790                       # mshr miss rate for ReadReq accesses
system.cpu.dcache.ReadReq_mshr_miss_rate::total     0.000790                       # mshr miss rate for ReadReq accesses
system.cpu.dcache.ReadReq_avg_mshr_miss_latency::.cpu.data 75985.427043                       # average ReadReq mshr miss latency
system.cpu.dcache.ReadReq_avg_mshr_miss_latency::total 75985.427043                       # average ReadReq mshr miss latency
system.cpu.dcache.WriteReq_hits::.cpu.data     14243716                       # number of WriteReq hits
system.cpu.dcache.WriteReq_hits::total       14243716                       # number of WriteReq hits
system.cpu.dcache.WriteReq_misses::.cpu.data        55571                       # number of WriteReq misses
system.cpu.dcache.WriteReq_misses::total        55571                       # number of WriteReq misses
system.cpu.dcache.WriteReq_miss_latency::.cpu.data   4294175000                       # number of WriteReq miss cycles
system.cpu.dcache.WriteReq_miss_latency::total   4294175000                       # number of WriteReq miss cycles
system.cpu.dcache.WriteReq_accesses::.cpu.data     14299287                       # number of WriteReq accesses(hits+misses)
system.cpu.dcache.WriteReq_accesses::total     14299287                       # number of WriteReq accesses(hits+misses)
system.cpu.dcache.WriteReq_miss_rate::.cpu.data     0.003886                       # miss rate for WriteReq accesses
system.cpu.dcache.WriteReq_miss_rate::total     0.003886                       # miss rate for WriteReq accesses
system.cpu.dcache.WriteReq_avg_miss_latency::.cpu.data 77273.667920                       # average WriteReq miss latency
system.cpu.dcache.WriteReq_avg_miss_latency::total 77273.667920                       # average WriteReq miss latency
system.cpu.dcache.WriteReq_mshr_hits::.cpu.data        16636                       # number of WriteReq MSHR hits
system.cpu.dcache.WriteReq_mshr_hits::total        16636                       # number of WriteReq MSHR hits
system.cpu.dcache.WriteReq_mshr_misses::.cpu.data        38935                       # number of WriteReq MSHR misses
system.cpu.dcache.WriteReq_mshr_misses::total        38935                       # number of WriteReq MSHR misses
system.cpu.dcache.WriteReq_mshr_miss_latency::.cpu.data   3168479000                       # number of WriteReq MSHR miss cycles
system.cpu.dcache.WriteReq_mshr_miss_latency::total   3168479000                       # number of WriteReq MSHR miss cycles
system.cpu.dcache.WriteReq_mshr_miss_rate::.cpu.data     0.002723                       # mshr miss rate for WriteReq accesses
system.cpu.dcache.WriteReq_mshr_miss_rate::total     0.002723                       # mshr miss rate for WriteReq accesses
system.cpu.dcache.WriteReq_avg_mshr_miss_latency::.cpu.data 81378.682419                       # average WriteReq mshr miss latency
system.cpu.dcache.WriteReq_avg_mshr_miss_latency::total 81378.682419                       # average WriteReq mshr miss latency
system.cpu.dcache.SoftPFReq_hits::.cpu.data         3327                       # number of SoftPFReq hits
system.cpu.dcache.SoftPFReq_hits::total          3327                       # number of SoftPFReq hits
system.cpu.dcache.SoftPFReq_misses::.cpu.data           38                       # number of SoftPFReq misses
system.cpu.dcache.SoftPFReq_misses::total           38                       # number of SoftPFReq misses
system.cpu.dcache.SoftPFReq_accesses::.cpu.data         3365                       # number of SoftPFReq accesses(hits+misses)
system.cpu.dcache.SoftPFReq_accesses::total         3365                       # number of SoftPFReq accesses(hits+misses)
system.cpu.dcache.SoftPFReq_miss_rate::.cpu.data     0.011293                       # miss rate for SoftPFReq accesses
system.cpu.dcache.SoftPFReq_miss_rate::total     0.011293                       # miss rate for SoftPFReq accesses
system.cpu.dcache.SoftPFReq_mshr_misses::.cpu.data           32                       # number of SoftPFReq MSHR misses
system.cpu.dcache.SoftPFReq_mshr_misses::total           32                       # number of SoftPFReq MSHR misses
system.cpu.dcache.SoftPFReq_mshr_miss_latency::.cpu.data      2691500                       # number of SoftPFReq MSHR miss cycles
system.cpu.dcache.SoftPFReq_mshr_miss_latency::total      2691500                       # number of SoftPFReq MSHR miss cycles
system.cpu.dcache.SoftPFReq_mshr_miss_rate::.cpu.data     0.009510                       # mshr miss rate for SoftPFReq accesses
system.cpu.dcache.SoftPFReq_mshr_miss_rate::total     0.009510                       # mshr miss rate for SoftPFReq accesses
system.cpu.dcache.SoftPFReq_avg_mshr_miss_latency::.cpu.data 84109.375000                       # average SoftPFReq mshr miss latency
system.cpu.dcache.SoftPFReq_avg_mshr_miss_latency::total 84109.375000                       # average SoftPFReq mshr miss latency
system.cpu.dcache.LoadLockedReq_hits::.cpu.data        89080                       # number of LoadLockedReq hits
system.cpu.dcache.LoadLockedReq_hits::total        89080                       # number of LoadLockedReq hits
system.cpu.dcache.LoadLockedReq_accesses::.cpu.data        89080                       # number of LoadLockedReq accesses(hits+misses)
system.cpu.dcache.LoadLockedReq_accesses::total        89080                       # number of LoadLockedReq accesses(hits+misses)
system.cpu.dcache.StoreCondReq_hits::.cpu.data        89080                       # number of StoreCondReq hits
system.cpu.dcache.StoreCondReq_hits::total        89080                       # number of StoreCondReq hits
system.cpu.dcache.StoreCondReq_accesses::.cpu.data        89080                       # number of StoreCondReq accesses(hits+misses)
system.cpu.dcache.StoreCondReq_accesses::total        89080                       # number of StoreCondReq accesses(hits+misses)
system.cpu.dcache.tags.pwrStateResidencyTicks::UNDEFINED  65735584500                       # Cumulative time (in ticks) in various power states
system.cpu.dcache.tags.tagsinuse          1020.477804                       # Cycle average of tags in use
system.cpu.dcache.tags.total_refs            35052314                       # Total number of references to valid blocks.
system.cpu.dcache.tags.sampled_refs             55230                       # Sample count of references to valid blocks.
system.cpu.dcache.tags.avg_refs            634.660764                       # Average number of references to valid blocks.
system.cpu.dcache.tags.warmup_cycle            195500                       # Cycle when the warmup percentage was hit.
system.cpu.dcache.tags.occ_blocks::.cpu.data  1020.477804                       # Average occupied blocks per requestor
system.cpu.dcache.tags.occ_percent::.cpu.data     0.996560                       # Average percentage of cache occupancy
system.cpu.dcache.tags.occ_percent::total     0.996560                       # Average percentage of cache occupancy
system.cpu.dcache.tags.occ_task_id_blocks::1024         1024                       # Occupied blocks per task id
system.cpu.dcache.tags.age_task_id_blocks_1024::0            4                       # Occupied blocks per task id
system.cpu.dcache.tags.age_task_id_blocks_1024::1           49                       # Occupied blocks per task id
system.cpu.dcache.tags.age_task_id_blocks_1024::2          446                       # Occupied blocks per task id
system.cpu.dcache.tags.age_task_id_blocks_1024::3          489                       # Occupied blocks per task id
system.cpu.dcache.tags.age_task_id_blocks_1024::4           36                       # Occupied blocks per task id
system.cpu.dcache.tags.occ_task_id_percent::1024            1                       # Percentage of cache occupancy per task id
system.cpu.dcache.tags.tag_accesses          70199594                       # Number of tag accesses
system.cpu.dcache.tags.data_accesses         70199594                       # Number of data accesses
system.cpu.itb.walker.pwrStateResidencyTicks::UNDEFINED  65735584500                       # Cumulative time (in ticks) in various power states
system.cpu.itb.stage2_mmu.stage2_tlb.walker.pwrStateResidencyTicks::UNDEFINED  65735584500                       # Cumulative time (in ticks) in various power states

---------- End Simulation Statistics   ----------
