
---------- Begin Simulation Statistics ----------
final_tick                                75354343500                       # Number of ticks from beginning of simulation (restored from checkpoints and never reset)
host_inst_rate                                 193528                       # Simulator instruction rate (inst/s)
host_mem_usage                                 691952                       # Number of bytes of host memory used
host_op_rate                                   195664                       # Simulator op (including micro ops) rate (op/s)
host_seconds                                   516.72                       # Real time elapsed on the host
host_tick_rate                              145831817                       # Simulator tick rate (ticks/s)
sim_freq                                 1000000000000                       # Frequency of simulated ticks
sim_insts                                   100000000                       # Number of instructions simulated
sim_ops                                     101103428                       # Number of ops (including micro ops) simulated
sim_seconds                                  0.075354                       # Number of seconds simulated
sim_ticks                                 75354343500                       # Number of ticks simulated
system.cpu.branchPred.BTBCorrect                    0                       # Number of correct BTB predictions (this stat may not work properly.
system.cpu.branchPred.BTBHitPct             84.201143                       # BTB Hit Percentage
system.cpu.branchPred.BTBHits                 4088144                       # Number of BTB hits
system.cpu.branchPred.BTBLookups              4855212                       # Number of BTB lookups
system.cpu.branchPred.RASInCorrect                 19                       # Number of incorrect RAS predictions.
system.cpu.branchPred.condIncorrect            352164                       # Number of conditional branches incorrect
system.cpu.branchPred.condPredicted           5101087                       # Number of conditional branches predicted
system.cpu.branchPred.indirectHits             102913                       # Number of indirect target hits.
system.cpu.branchPred.indirectLookups          676357                       # Number of indirect predictor lookups.
system.cpu.branchPred.indirectMisses           573444                       # Number of indirect misses.
system.cpu.branchPred.lookups                 6508418                       # Number of BP lookups
system.cpu.branchPred.usedRAS                  312340                       # Number of times the RAS was used to get a target.
system.cpu.branchPredindirectMispredicted        37670                       # Number of mispredicted indirect branches.
system.cpu.committedInsts                   100000000                       # Number of instructions committed
system.cpu.committedOps                     101103428                       # Number of ops (including micro ops) committed
system.cpu.cpi                               1.507087                       # CPI: cycles per instruction
system.cpu.discardedOps                        984199                       # Number of ops (including micro ops) which were discarded before commit
system.cpu.dtb.accesses                             0                       # DTB accesses
system.cpu.dtb.align_faults                         0                       # Number of TLB faults due to alignment restrictions
system.cpu.dtb.domain_faults                        0                       # Number of TLB faults due to domain restrictions
system.cpu.dtb.flush_entries                        0                       # Number of entries that have been flushed from TLB
system.cpu.dtb.flush_tlb                            0                       # Number of times complete TLB was flushed
system.cpu.dtb.flush_tlb_asid                       0                       # Number of times TLB was flushed by ASID
system.cpu.dtb.flush_tlb_mva                        0                       # Number of times TLB was flushed by MVA
system.cpu.dtb.flush_tlb_mva_asid                   0                       # Number of times TLB was flushed by MVA & ASID
system.cpu.dtb.hits                                 0                       # DTB hits
system.cpu.dtb.inst_accesses                        0                       # ITB inst accesses
system.cpu.dtb.inst_hits                            0                       # ITB inst hits
system.cpu.dtb.inst_misses                          0                       # ITB inst misses
system.cpu.dtb.misses                               0                       # DTB misses
system.cpu.dtb.perms_faults                         0                       # Number of TLB faults due to permissions restrictions
system.cpu.dtb.prefetch_faults                      0                       # Number of TLB faults due to prefetch
system.cpu.dtb.read_accesses                        0                       # DTB read accesses
system.cpu.dtb.read_hits                            0                       # DTB read hits
system.cpu.dtb.read_misses                          0                       # DTB read misses
system.cpu.dtb.stage2_mmu.stage2_tlb.accesses            0                       # DTB accesses
system.cpu.dtb.stage2_mmu.stage2_tlb.align_faults            0                       # Number of TLB faults due to alignment restrictions
system.cpu.dtb.stage2_mmu.stage2_tlb.domain_faults            0                       # Number of TLB faults due to domain restrictions
system.cpu.dtb.stage2_mmu.stage2_tlb.flush_entries            0                       # Number of entries that have been flushed from TLB
system.cpu.dtb.stage2_mmu.stage2_tlb.flush_tlb            0                       # Number of times complete TLB was flushed
system.cpu.dtb.stage2_mmu.stage2_tlb.flush_tlb_asid            0                       # Number of times TLB was flushed by ASID
system.cpu.dtb.stage2_mmu.stage2_tlb.flush_tlb_mva            0                       # Number of times TLB was flushed by MVA
system.cpu.dtb.stage2_mmu.stage2_tlb.flush_tlb_mva_asid            0                       # Number of times TLB was flushed by MVA & ASID
system.cpu.dtb.stage2_mmu.stage2_tlb.hits            0                       # DTB hits
system.cpu.dtb.stage2_mmu.stage2_tlb.inst_accesses            0                       # ITB inst accesses
system.cpu.dtb.stage2_mmu.stage2_tlb.inst_hits            0                       # ITB inst hits
system.cpu.dtb.stage2_mmu.stage2_tlb.inst_misses            0                       # ITB inst misses
system.cpu.dtb.stage2_mmu.stage2_tlb.misses            0                       # DTB misses
system.cpu.dtb.stage2_mmu.stage2_tlb.perms_faults            0                       # Number of TLB faults due to permissions restrictions
system.cpu.dtb.stage2_mmu.stage2_tlb.prefetch_faults            0                       # Number of TLB faults due to prefetch
system.cpu.dtb.stage2_mmu.stage2_tlb.read_accesses            0                       # DTB read accesses
system.cpu.dtb.stage2_mmu.stage2_tlb.read_hits            0                       # DTB read hits
system.cpu.dtb.stage2_mmu.stage2_tlb.read_misses            0                       # DTB read misses
system.cpu.dtb.stage2_mmu.stage2_tlb.walker.walkRequestOrigin_Requested::Data            0                       # Table walker requests started/completed, data/inst
system.cpu.dtb.stage2_mmu.stage2_tlb.walker.walkRequestOrigin_Requested::Inst            0                       # Table walker requests started/completed, data/inst
system.cpu.dtb.stage2_mmu.stage2_tlb.walker.walkRequestOrigin_Requested::total            0                       # Table walker requests started/completed, data/inst
system.cpu.dtb.stage2_mmu.stage2_tlb.walker.walkRequestOrigin_Completed::Data            0                       # Table walker requests started/completed, data/inst
system.cpu.dtb.stage2_mmu.stage2_tlb.walker.walkRequestOrigin_Completed::Inst            0                       # Table walker requests started/completed, data/inst
system.cpu.dtb.stage2_mmu.stage2_tlb.walker.walkRequestOrigin_Completed::total            0                       # Table walker requests started/completed, data/inst
system.cpu.dtb.stage2_mmu.stage2_tlb.walker.walkRequestOrigin::total            0                       # Table walker requests started/completed, data/inst
system.cpu.dtb.stage2_mmu.stage2_tlb.walker.walks            0                       # Table walker walks requested
system.cpu.dtb.stage2_mmu.stage2_tlb.write_accesses            0                       # DTB write accesses
system.cpu.dtb.stage2_mmu.stage2_tlb.write_hits            0                       # DTB write hits
system.cpu.dtb.stage2_mmu.stage2_tlb.write_misses            0                       # DTB write misses
system.cpu.dtb.walker.walkRequestOrigin_Requested::Data            0                       # Table walker requests started/completed, data/inst
system.cpu.dtb.walker.walkRequestOrigin_Requested::Inst            0                       # Table walker requests started/completed, data/inst
system.cpu.dtb.walker.walkRequestOrigin_Requested::total            0                       # Table walker requests started/completed, data/inst
system.cpu.dtb.walker.walkRequestOrigin_Completed::Data            0                       # Table walker requests started/completed, data/inst
system.cpu.dtb.walker.walkRequestOrigin_Completed::Inst            0                       # Table walker requests started/completed, data/inst
system.cpu.dtb.walker.walkRequestOrigin_Completed::total            0                       # Table walker requests started/completed, data/inst
system.cpu.dtb.walker.walkRequestOrigin::total            0                       # Table walker requests started/completed, data/inst
system.cpu.dtb.walker.walks                         0                       # Table walker walks requested
system.cpu.dtb.write_accesses                       0                       # DTB write accesses
system.cpu.dtb.write_hits                           0                       # DTB write hits
system.cpu.dtb.write_misses                         0                       # DTB write misses
system.cpu.fetch2.amo_instructions                  0                       # Number of memory atomic instructions successfully decoded
system.cpu.fetch2.fp_instructions                   0                       # Number of floating point instructions successfully decoded
system.cpu.fetch2.int_instructions           48898848                       # Number of integer instructions successfully decoded
system.cpu.fetch2.load_instructions          40585373                       # Number of memory load instructions successfully decoded
system.cpu.fetch2.store_instructions          6267124                       # Number of memory store instructions successfully decoded
system.cpu.fetch2.vec_instructions                  0                       # Number of SIMD instructions successfully decoded
system.cpu.idleCycles                        32148717                       # Total number of cycles that the object has spent stopped
system.cpu.ipc                               0.663532                       # IPC: instructions per cycle
system.cpu.itb.accesses                             0                       # DTB accesses
system.cpu.itb.align_faults                         0                       # Number of TLB faults due to alignment restrictions
system.cpu.itb.domain_faults                        0                       # Number of TLB faults due to domain restrictions
system.cpu.itb.flush_entries                        0                       # Number of entries that have been flushed from TLB
system.cpu.itb.flush_tlb                            0                       # Number of times complete TLB was flushed
system.cpu.itb.flush_tlb_asid                       0                       # Number of times TLB was flushed by ASID
system.cpu.itb.flush_tlb_mva                        0                       # Number of times TLB was flushed by MVA
system.cpu.itb.flush_tlb_mva_asid                   0                       # Number of times TLB was flushed by MVA & ASID
system.cpu.itb.hits                                 0                       # DTB hits
system.cpu.itb.inst_accesses                        0                       # ITB inst accesses
system.cpu.itb.inst_hits                            0                       # ITB inst hits
system.cpu.itb.inst_misses                          0                       # ITB inst misses
system.cpu.itb.misses                               0                       # DTB misses
system.cpu.itb.perms_faults                         0                       # Number of TLB faults due to permissions restrictions
system.cpu.itb.prefetch_faults                      0                       # Number of TLB faults due to prefetch
system.cpu.itb.read_accesses                        0                       # DTB read accesses
system.cpu.itb.read_hits                            0                       # DTB read hits
system.cpu.itb.read_misses                          0                       # DTB read misses
system.cpu.itb.stage2_mmu.stage2_tlb.accesses            0                       # DTB accesses
system.cpu.itb.stage2_mmu.stage2_tlb.align_faults            0                       # Number of TLB faults due to alignment restrictions
system.cpu.itb.stage2_mmu.stage2_tlb.domain_faults            0                       # Number of TLB faults due to domain restrictions
system.cpu.itb.stage2_mmu.stage2_tlb.flush_entries            0                       # Number of entries that have been flushed from TLB
system.cpu.itb.stage2_mmu.stage2_tlb.flush_tlb            0                       # Number of times complete TLB was flushed
system.cpu.itb.stage2_mmu.stage2_tlb.flush_tlb_asid            0                       # Number of times TLB was flushed by ASID
system.cpu.itb.stage2_mmu.stage2_tlb.flush_tlb_mva            0                       # Number of times TLB was flushed by MVA
system.cpu.itb.stage2_mmu.stage2_tlb.flush_tlb_mva_asid            0                       # Number of times TLB was flushed by MVA & ASID
system.cpu.itb.stage2_mmu.stage2_tlb.hits            0                       # DTB hits
system.cpu.itb.stage2_mmu.stage2_tlb.inst_accesses            0                       # ITB inst accesses
system.cpu.itb.stage2_mmu.stage2_tlb.inst_hits            0                       # ITB inst hits
system.cpu.itb.stage2_mmu.stage2_tlb.inst_misses            0                       # ITB inst misses
system.cpu.itb.stage2_mmu.stage2_tlb.misses            0                       # DTB misses
system.cpu.itb.stage2_mmu.stage2_tlb.perms_faults            0                       # Number of TLB faults due to permissions restrictions
system.cpu.itb.stage2_mmu.stage2_tlb.prefetch_faults            0                       # Number of TLB faults due to prefetch
system.cpu.itb.stage2_mmu.stage2_tlb.read_accesses            0                       # DTB read accesses
system.cpu.itb.stage2_mmu.stage2_tlb.read_hits            0                       # DTB read hits
system.cpu.itb.stage2_mmu.stage2_tlb.read_misses            0                       # DTB read misses
system.cpu.itb.stage2_mmu.stage2_tlb.walker.walkRequestOrigin_Requested::Data            0                       # Table walker requests started/completed, data/inst
system.cpu.itb.stage2_mmu.stage2_tlb.walker.walkRequestOrigin_Requested::Inst            0                       # Table walker requests started/completed, data/inst
system.cpu.itb.stage2_mmu.stage2_tlb.walker.walkRequestOrigin_Requested::total            0                       # Table walker requests started/completed, data/inst
system.cpu.itb.stage2_mmu.stage2_tlb.walker.walkRequestOrigin_Completed::Data            0                       # Table walker requests started/completed, data/inst
system.cpu.itb.stage2_mmu.stage2_tlb.walker.walkRequestOrigin_Completed::Inst            0                       # Table walker requests started/completed, data/inst
system.cpu.itb.stage2_mmu.stage2_tlb.walker.walkRequestOrigin_Completed::total            0                       # Table walker requests started/completed, data/inst
system.cpu.itb.stage2_mmu.stage2_tlb.walker.walkRequestOrigin::total            0                       # Table walker requests started/completed, data/inst
system.cpu.itb.stage2_mmu.stage2_tlb.walker.walks            0                       # Table walker walks requested
system.cpu.itb.stage2_mmu.stage2_tlb.write_accesses            0                       # DTB write accesses
system.cpu.itb.stage2_mmu.stage2_tlb.write_hits            0                       # DTB write hits
system.cpu.itb.stage2_mmu.stage2_tlb.write_misses            0                       # DTB write misses
system.cpu.itb.walker.walkRequestOrigin_Requested::Data            0                       # Table walker requests started/completed, data/inst
system.cpu.itb.walker.walkRequestOrigin_Requested::Inst            0                       # Table walker requests started/completed, data/inst
system.cpu.itb.walker.walkRequestOrigin_Requested::total            0                       # Table walker requests started/completed, data/inst
system.cpu.itb.walker.walkRequestOrigin_Completed::Data            0                       # Table walker requests started/completed, data/inst
system.cpu.itb.walker.walkRequestOrigin_Completed::Inst            0                       # Table walker requests started/completed, data/inst
system.cpu.itb.walker.walkRequestOrigin_Completed::total            0                       # Table walker requests started/completed, data/inst
system.cpu.itb.walker.walkRequestOrigin::total            0                       # Table walker requests started/completed, data/inst
system.cpu.itb.walker.walks                         0                       # Table walker walks requested
system.cpu.itb.write_accesses                       0                       # DTB write accesses
system.cpu.itb.write_hits                           0                       # DTB write hits
system.cpu.itb.write_misses                         0                       # DTB write misses
system.cpu.numCycles                        150708687                       # number of cpu cycles simulated
system.cpu.numFetchSuspends                         0                       # Number of times Execute suspended instruction fetching
system.cpu.numWorkItemsCompleted                    0                       # number of work items this cpu completed
system.cpu.numWorkItemsStarted                      0                       # number of work items this cpu started
system.cpu.op_class_0::No_OpClass                   0      0.00%      0.00% # Class of committed instruction
system.cpu.op_class_0::IntAlu                55116468     54.51%     54.51% # Class of committed instruction
system.cpu.op_class_0::IntMult                 167845      0.17%     54.68% # Class of committed instruction
system.cpu.op_class_0::IntDiv                       0      0.00%     54.68% # Class of committed instruction
system.cpu.op_class_0::FloatAdd                     0      0.00%     54.68% # Class of committed instruction
system.cpu.op_class_0::FloatCmp                     0      0.00%     54.68% # Class of committed instruction
system.cpu.op_class_0::FloatCvt                     0      0.00%     54.68% # Class of committed instruction
system.cpu.op_class_0::FloatMult                    0      0.00%     54.68% # Class of committed instruction
system.cpu.op_class_0::FloatMultAcc                 0      0.00%     54.68% # Class of committed instruction
system.cpu.op_class_0::FloatDiv                     0      0.00%     54.68% # Class of committed instruction
system.cpu.op_class_0::FloatMisc                    0      0.00%     54.68% # Class of committed instruction
system.cpu.op_class_0::FloatSqrt                    0      0.00%     54.68% # Class of committed instruction
system.cpu.op_class_0::SimdAdd                    376      0.00%     54.68% # Class of committed instruction
system.cpu.op_class_0::SimdAddAcc                   0      0.00%     54.68% # Class of committed instruction
system.cpu.op_class_0::SimdAlu                    466      0.00%     54.68% # Class of committed instruction
system.cpu.op_class_0::SimdCmp                    378      0.00%     54.68% # Class of committed instruction
system.cpu.op_class_0::SimdCvt                      0      0.00%     54.68% # Class of committed instruction
system.cpu.op_class_0::SimdMisc                    53      0.00%     54.68% # Class of committed instruction
system.cpu.op_class_0::SimdMult                     0      0.00%     54.68% # Class of committed instruction
system.cpu.op_class_0::SimdMultAcc                  0      0.00%     54.68% # Class of committed instruction
system.cpu.op_class_0::SimdShift                    0      0.00%     54.68% # Class of committed instruction
system.cpu.op_class_0::SimdShiftAcc                 0      0.00%     54.68% # Class of committed instruction
system.cpu.op_class_0::SimdDiv                      0      0.00%     54.68% # Class of committed instruction
system.cpu.op_class_0::SimdSqrt                     0      0.00%     54.68% # Class of committed instruction
system.cpu.op_class_0::SimdFloatAdd            267609      0.26%     54.95% # Class of committed instruction
system.cpu.op_class_0::SimdFloatAlu                 0      0.00%     54.95% # Class of committed instruction
system.cpu.op_class_0::SimdFloatCmp            259630      0.26%     55.20% # Class of committed instruction
system.cpu.op_class_0::SimdFloatCvt            161456      0.16%     55.36% # Class of committed instruction
system.cpu.op_class_0::SimdFloatDiv             54308      0.05%     55.42% # Class of committed instruction
system.cpu.op_class_0::SimdFloatMisc           483616      0.48%     55.90% # Class of committed instruction
system.cpu.op_class_0::SimdFloatMult            33524      0.03%     55.93% # Class of committed instruction
system.cpu.op_class_0::SimdFloatMultAcc         11115      0.01%     55.94% # Class of committed instruction
system.cpu.op_class_0::SimdFloatSqrt                0      0.00%     55.94% # Class of committed instruction
system.cpu.op_class_0::SimdReduceAdd                0      0.00%     55.94% # Class of committed instruction
system.cpu.op_class_0::SimdReduceAlu                0      0.00%     55.94% # Class of committed instruction
system.cpu.op_class_0::SimdReduceCmp                0      0.00%     55.94% # Class of committed instruction
system.cpu.op_class_0::SimdFloatReduceAdd            0      0.00%     55.94% # Class of committed instruction
system.cpu.op_class_0::SimdFloatReduceCmp            0      0.00%     55.94% # Class of committed instruction
system.cpu.op_class_0::SimdAes                      0      0.00%     55.94% # Class of committed instruction
system.cpu.op_class_0::SimdAesMix                   0      0.00%     55.94% # Class of committed instruction
system.cpu.op_class_0::SimdSha1Hash                 0      0.00%     55.94% # Class of committed instruction
system.cpu.op_class_0::SimdSha1Hash2                0      0.00%     55.94% # Class of committed instruction
system.cpu.op_class_0::SimdSha256Hash               0      0.00%     55.94% # Class of committed instruction
system.cpu.op_class_0::SimdSha256Hash2              0      0.00%     55.94% # Class of committed instruction
system.cpu.op_class_0::SimdShaSigma2                0      0.00%     55.94% # Class of committed instruction
system.cpu.op_class_0::SimdShaSigma3                0      0.00%     55.94% # Class of committed instruction
system.cpu.op_class_0::SimdPredAlu                  0      0.00%     55.94% # Class of committed instruction
system.cpu.op_class_0::MemRead               38167270     37.75%     93.69% # Class of committed instruction
system.cpu.op_class_0::MemWrite               6379314      6.31%    100.00% # Class of committed instruction
system.cpu.op_class_0::FloatMemRead                 0      0.00%    100.00% # Class of committed instruction
system.cpu.op_class_0::FloatMemWrite                0      0.00%    100.00% # Class of committed instruction
system.cpu.op_class_0::IprAccess                    0      0.00%    100.00% # Class of committed instruction
system.cpu.op_class_0::InstPrefetch                 0      0.00%    100.00% # Class of committed instruction
system.cpu.op_class_0::total                101103428                       # Class of committed instruction
system.cpu.tickCycles                       118559970                       # Number of cycles that the object actually ticked
system.cpu.workload.numSyscalls                    79                       # Number of system calls
system.membus.snoop_filter.hit_multi_requests            0                       # Number of requests hitting in the snoop filter with multiple (>1) holders of the requested data.
system.membus.snoop_filter.hit_multi_snoops            0                       # Number of snoops hitting in the snoop filter with multiple (>1) holders of the requested data.
system.membus.snoop_filter.hit_single_requests            0                       # Number of requests hitting in the snoop filter with a single holder of the requested data.
system.membus.snoop_filter.hit_single_snoops            0                       # Number of snoops hitting in the snoop filter with a single holder of the requested data.
system.membus.snoop_filter.tot_requests          5484                       # Total number of requests made to the snoop filter.
system.membus.snoop_filter.tot_snoops               0                       # Total number of snoops made to the snoop filter.
system.tol2bus.snoop_filter.hit_multi_requests        12320                       # Number of requests hitting in the snoop filter with multiple (>1) holders of the requested data.
system.tol2bus.snoop_filter.hit_multi_snoops            0                       # Number of snoops hitting in the snoop filter with multiple (>1) holders of the requested data.
system.tol2bus.snoop_filter.hit_single_requests      1242813                       # Number of requests hitting in the snoop filter with a single holder of the requested data.
system.tol2bus.snoop_filter.hit_single_snoops            0                       # Number of snoops hitting in the snoop filter with a single holder of the requested data.
system.tol2bus.snoop_filter.tot_requests      2486166                       # Total number of requests made to the snoop filter.
system.tol2bus.snoop_filter.tot_snoops              0                       # Total number of snoops made to the snoop filter.
system.membus.pwrStateResidencyTicks::UNDEFINED  75354343500                       # Cumulative time (in ticks) in various power states
system.membus.trans_dist::ReadResp               1817                       # Transaction distribution
system.membus.trans_dist::ReadExReq              3667                       # Transaction distribution
system.membus.trans_dist::ReadExResp             3667                       # Transaction distribution
system.membus.trans_dist::ReadSharedReq          1817                       # Transaction distribution
system.membus.pkt_count_system.l2.mem_side::system.mem_ctrls.port        10968                       # Packet count per connected master and slave (bytes)
system.membus.pkt_count::total                  10968                       # Packet count per connected master and slave (bytes)
system.membus.pkt_size_system.l2.mem_side::system.mem_ctrls.port       350976                       # Cumulative packet size per connected master and slave (bytes)
system.membus.pkt_size::total                  350976                       # Cumulative packet size per connected master and slave (bytes)
system.membus.snoops                                0                       # Total snoops (count)
system.membus.snoopTraffic                          0                       # Total snoop traffic (bytes)
system.membus.snoop_fanout::samples              5484                       # Request fanout histogram
system.membus.snoop_fanout::mean                    0                       # Request fanout histogram
system.membus.snoop_fanout::stdev                   0                       # Request fanout histogram
system.membus.snoop_fanout::underflows              0      0.00%      0.00% # Request fanout histogram
system.membus.snoop_fanout::0                    5484    100.00%    100.00% # Request fanout histogram
system.membus.snoop_fanout::1                       0      0.00%    100.00% # Request fanout histogram
system.membus.snoop_fanout::overflows               0      0.00%    100.00% # Request fanout histogram
system.membus.snoop_fanout::min_value               0                       # Request fanout histogram
system.membus.snoop_fanout::max_value               0                       # Request fanout histogram
system.membus.snoop_fanout::total                5484                       # Request fanout histogram
system.membus.respLayer1.occupancy           29174250                       # Layer occupancy (ticks)
system.membus.respLayer1.utilization              0.0                       # Layer utilization (%)
system.membus.reqLayer0.occupancy             6861000                       # Layer occupancy (ticks)
system.membus.reqLayer0.utilization               0.0                       # Layer utilization (%)
system.tol2bus.pwrStateResidencyTicks::UNDEFINED  75354343500                       # Cumulative time (in ticks) in various power states
system.tol2bus.trans_dist::ReadResp           1047933                       # Transaction distribution
system.tol2bus.trans_dist::WritebackDirty      1146375                       # Transaction distribution
system.tol2bus.trans_dist::WritebackClean         3472                       # Transaction distribution
system.tol2bus.trans_dist::CleanEvict           92966                       # Transaction distribution
system.tol2bus.trans_dist::ReadExReq           195420                       # Transaction distribution
system.tol2bus.trans_dist::ReadExResp          195420                       # Transaction distribution
system.tol2bus.trans_dist::ReadCleanReq          3980                       # Transaction distribution
system.tol2bus.trans_dist::ReadSharedReq      1043953                       # Transaction distribution
system.tol2bus.pkt_count_system.cpu.icache.mem_side::system.l2.cpu_side        11432                       # Packet count per connected master and slave (bytes)
system.tol2bus.pkt_count_system.cpu.dcache.mem_side::system.l2.cpu_side      3718087                       # Packet count per connected master and slave (bytes)
system.tol2bus.pkt_count::total               3729519                       # Packet count per connected master and slave (bytes)
system.tol2bus.pkt_size_system.cpu.icache.mem_side::system.l2.cpu_side       476928                       # Cumulative packet size per connected master and slave (bytes)
system.tol2bus.pkt_size_system.cpu.dcache.mem_side::system.l2.cpu_side    152687872                       # Cumulative packet size per connected master and slave (bytes)
system.tol2bus.pkt_size::total              153164800                       # Cumulative packet size per connected master and slave (bytes)
system.tol2bus.snoops                               0                       # Total snoops (count)
system.tol2bus.snoopTraffic                         0                       # Total snoop traffic (bytes)
system.tol2bus.snoop_fanout::samples          1243353                       # Request fanout histogram
system.tol2bus.snoop_fanout::mean            0.009909                       # Request fanout histogram
system.tol2bus.snoop_fanout::stdev           0.099048                       # Request fanout histogram
system.tol2bus.snoop_fanout::underflows             0      0.00%      0.00% # Request fanout histogram
system.tol2bus.snoop_fanout::0                1231033     99.01%     99.01% # Request fanout histogram
system.tol2bus.snoop_fanout::1                  12320      0.99%    100.00% # Request fanout histogram
system.tol2bus.snoop_fanout::2                      0      0.00%    100.00% # Request fanout histogram
system.tol2bus.snoop_fanout::overflows              0      0.00%    100.00% # Request fanout histogram
system.tol2bus.snoop_fanout::min_value              0                       # Request fanout histogram
system.tol2bus.snoop_fanout::max_value              1                       # Request fanout histogram
system.tol2bus.snoop_fanout::total            1243353                       # Request fanout histogram
system.tol2bus.reqLayer0.occupancy         2392930000                       # Layer occupancy (ticks)
system.tol2bus.reqLayer0.utilization              3.2                       # Layer utilization (%)
system.tol2bus.respLayer1.occupancy        1859062494                       # Layer occupancy (ticks)
system.tol2bus.respLayer1.utilization             2.5                       # Layer utilization (%)
system.tol2bus.respLayer0.occupancy           6006427                       # Layer occupancy (ticks)
system.tol2bus.respLayer0.utilization             0.0                       # Layer utilization (%)
system.voltage_domain.voltage                       1                       # Voltage in Volts
system.clk_domain.clock                          1000                       # Clock period in ticks
system.l2.pwrStateResidencyTicks::UNDEFINED  75354343500                       # Cumulative time (in ticks) in various power states
system.l2.demand_hits::.cpu.inst                 2679                       # number of demand (read+write) hits
system.l2.demand_hits::.cpu.data              1235183                       # number of demand (read+write) hits
system.l2.demand_hits::total                  1237862                       # number of demand (read+write) hits
system.l2.overall_hits::.cpu.inst                2679                       # number of overall hits
system.l2.overall_hits::.cpu.data             1235183                       # number of overall hits
system.l2.overall_hits::total                 1237862                       # number of overall hits
system.l2.demand_misses::.cpu.inst               1301                       # number of demand (read+write) misses
system.l2.demand_misses::.cpu.data               4190                       # number of demand (read+write) misses
system.l2.demand_misses::total                   5491                       # number of demand (read+write) misses
system.l2.overall_misses::.cpu.inst              1301                       # number of overall misses
system.l2.overall_misses::.cpu.data              4190                       # number of overall misses
system.l2.overall_misses::total                  5491                       # number of overall misses
system.l2.demand_miss_latency::.cpu.inst     99602000                       # number of demand (read+write) miss cycles
system.l2.demand_miss_latency::.cpu.data    325816500                       # number of demand (read+write) miss cycles
system.l2.demand_miss_latency::total        425418500                       # number of demand (read+write) miss cycles
system.l2.overall_miss_latency::.cpu.inst     99602000                       # number of overall miss cycles
system.l2.overall_miss_latency::.cpu.data    325816500                       # number of overall miss cycles
system.l2.overall_miss_latency::total       425418500                       # number of overall miss cycles
system.l2.demand_accesses::.cpu.inst             3980                       # number of demand (read+write) accesses
system.l2.demand_accesses::.cpu.data          1239373                       # number of demand (read+write) accesses
system.l2.demand_accesses::total              1243353                       # number of demand (read+write) accesses
system.l2.overall_accesses::.cpu.inst            3980                       # number of overall (read+write) accesses
system.l2.overall_accesses::.cpu.data         1239373                       # number of overall (read+write) accesses
system.l2.overall_accesses::total             1243353                       # number of overall (read+write) accesses
system.l2.demand_miss_rate::.cpu.inst        0.326884                       # miss rate for demand accesses
system.l2.demand_miss_rate::.cpu.data        0.003381                       # miss rate for demand accesses
system.l2.demand_miss_rate::total            0.004416                       # miss rate for demand accesses
system.l2.overall_miss_rate::.cpu.inst       0.326884                       # miss rate for overall accesses
system.l2.overall_miss_rate::.cpu.data       0.003381                       # miss rate for overall accesses
system.l2.overall_miss_rate::total           0.004416                       # miss rate for overall accesses
system.l2.demand_avg_miss_latency::.cpu.inst 76558.032283                       # average overall miss latency
system.l2.demand_avg_miss_latency::.cpu.data 77760.501193                       # average overall miss latency
system.l2.demand_avg_miss_latency::total 77475.596431                       # average overall miss latency
system.l2.overall_avg_miss_latency::.cpu.inst 76558.032283                       # average overall miss latency
system.l2.overall_avg_miss_latency::.cpu.data 77760.501193                       # average overall miss latency
system.l2.overall_avg_miss_latency::total 77475.596431                       # average overall miss latency
system.l2.blocked_cycles::no_mshrs                  0                       # number of cycles access was blocked
system.l2.blocked_cycles::no_targets                0                       # number of cycles access was blocked
system.l2.blocked::no_mshrs                         0                       # number of cycles access was blocked
system.l2.blocked::no_targets                       0                       # number of cycles access was blocked
system.l2.avg_blocked_cycles::no_mshrs            nan                       # average number of cycles each access was blocked
system.l2.avg_blocked_cycles::no_targets          nan                       # average number of cycles each access was blocked
system.l2.demand_mshr_hits::.cpu.inst               1                       # number of demand (read+write) MSHR hits
system.l2.demand_mshr_hits::.cpu.data               6                       # number of demand (read+write) MSHR hits
system.l2.demand_mshr_hits::total                   7                       # number of demand (read+write) MSHR hits
system.l2.overall_mshr_hits::.cpu.inst              1                       # number of overall MSHR hits
system.l2.overall_mshr_hits::.cpu.data              6                       # number of overall MSHR hits
system.l2.overall_mshr_hits::total                  7                       # number of overall MSHR hits
system.l2.demand_mshr_misses::.cpu.inst          1300                       # number of demand (read+write) MSHR misses
system.l2.demand_mshr_misses::.cpu.data          4184                       # number of demand (read+write) MSHR misses
system.l2.demand_mshr_misses::total              5484                       # number of demand (read+write) MSHR misses
system.l2.overall_mshr_misses::.cpu.inst         1300                       # number of overall MSHR misses
system.l2.overall_mshr_misses::.cpu.data         4184                       # number of overall MSHR misses
system.l2.overall_mshr_misses::total             5484                       # number of overall MSHR misses
system.l2.demand_mshr_miss_latency::.cpu.inst     86538000                       # number of demand (read+write) MSHR miss cycles
system.l2.demand_mshr_miss_latency::.cpu.data    283642000                       # number of demand (read+write) MSHR miss cycles
system.l2.demand_mshr_miss_latency::total    370180000                       # number of demand (read+write) MSHR miss cycles
system.l2.overall_mshr_miss_latency::.cpu.inst     86538000                       # number of overall MSHR miss cycles
system.l2.overall_mshr_miss_latency::.cpu.data    283642000                       # number of overall MSHR miss cycles
system.l2.overall_mshr_miss_latency::total    370180000                       # number of overall MSHR miss cycles
system.l2.demand_mshr_miss_rate::.cpu.inst     0.326633                       # mshr miss rate for demand accesses
system.l2.demand_mshr_miss_rate::.cpu.data     0.003376                       # mshr miss rate for demand accesses
system.l2.demand_mshr_miss_rate::total       0.004411                       # mshr miss rate for demand accesses
system.l2.overall_mshr_miss_rate::.cpu.inst     0.326633                       # mshr miss rate for overall accesses
system.l2.overall_mshr_miss_rate::.cpu.data     0.003376                       # mshr miss rate for overall accesses
system.l2.overall_mshr_miss_rate::total      0.004411                       # mshr miss rate for overall accesses
system.l2.demand_avg_mshr_miss_latency::.cpu.inst 66567.692308                       # average overall mshr miss latency
system.l2.demand_avg_mshr_miss_latency::.cpu.data 67792.065010                       # average overall mshr miss latency
system.l2.demand_avg_mshr_miss_latency::total 67501.823487                       # average overall mshr miss latency
system.l2.overall_avg_mshr_miss_latency::.cpu.inst 66567.692308                       # average overall mshr miss latency
system.l2.overall_avg_mshr_miss_latency::.cpu.data 67792.065010                       # average overall mshr miss latency
system.l2.overall_avg_mshr_miss_latency::total 67501.823487                       # average overall mshr miss latency
system.l2.replacements                              0                       # number of replacements
system.l2.WritebackDirty_hits::.writebacks      1146375                       # number of WritebackDirty hits
system.l2.WritebackDirty_hits::total          1146375                       # number of WritebackDirty hits
system.l2.WritebackDirty_accesses::.writebacks      1146375                       # number of WritebackDirty accesses(hits+misses)
system.l2.WritebackDirty_accesses::total      1146375                       # number of WritebackDirty accesses(hits+misses)
system.l2.WritebackClean_hits::.writebacks         3464                       # number of WritebackClean hits
system.l2.WritebackClean_hits::total             3464                       # number of WritebackClean hits
system.l2.WritebackClean_accesses::.writebacks         3464                       # number of WritebackClean accesses(hits+misses)
system.l2.WritebackClean_accesses::total         3464                       # number of WritebackClean accesses(hits+misses)
system.l2.ReadExReq_hits::.cpu.data            191753                       # number of ReadExReq hits
system.l2.ReadExReq_hits::total                191753                       # number of ReadExReq hits
system.l2.ReadExReq_misses::.cpu.data            3667                       # number of ReadExReq misses
system.l2.ReadExReq_misses::total                3667                       # number of ReadExReq misses
system.l2.ReadExReq_miss_latency::.cpu.data    284356500                       # number of ReadExReq miss cycles
system.l2.ReadExReq_miss_latency::total     284356500                       # number of ReadExReq miss cycles
system.l2.ReadExReq_accesses::.cpu.data        195420                       # number of ReadExReq accesses(hits+misses)
system.l2.ReadExReq_accesses::total            195420                       # number of ReadExReq accesses(hits+misses)
system.l2.ReadExReq_miss_rate::.cpu.data     0.018765                       # miss rate for ReadExReq accesses
system.l2.ReadExReq_miss_rate::total         0.018765                       # miss rate for ReadExReq accesses
system.l2.ReadExReq_avg_miss_latency::.cpu.data 77544.723207                       # average ReadExReq miss latency
system.l2.ReadExReq_avg_miss_latency::total 77544.723207                       # average ReadExReq miss latency
system.l2.ReadExReq_mshr_misses::.cpu.data         3667                       # number of ReadExReq MSHR misses
system.l2.ReadExReq_mshr_misses::total           3667                       # number of ReadExReq MSHR misses
system.l2.ReadExReq_mshr_miss_latency::.cpu.data    247686500                       # number of ReadExReq MSHR miss cycles
system.l2.ReadExReq_mshr_miss_latency::total    247686500                       # number of ReadExReq MSHR miss cycles
system.l2.ReadExReq_mshr_miss_rate::.cpu.data     0.018765                       # mshr miss rate for ReadExReq accesses
system.l2.ReadExReq_mshr_miss_rate::total     0.018765                       # mshr miss rate for ReadExReq accesses
system.l2.ReadExReq_avg_mshr_miss_latency::.cpu.data 67544.723207                       # average ReadExReq mshr miss latency
system.l2.ReadExReq_avg_mshr_miss_latency::total 67544.723207                       # average ReadExReq mshr miss latency
system.l2.ReadCleanReq_hits::.cpu.inst           2679                       # number of ReadCleanReq hits
system.l2.ReadCleanReq_hits::total               2679                       # number of ReadCleanReq hits
system.l2.ReadCleanReq_misses::.cpu.inst         1301                       # number of ReadCleanReq misses
system.l2.ReadCleanReq_misses::total             1301                       # number of ReadCleanReq misses
system.l2.ReadCleanReq_miss_latency::.cpu.inst     99602000                       # number of ReadCleanReq miss cycles
system.l2.ReadCleanReq_miss_latency::total     99602000                       # number of ReadCleanReq miss cycles
system.l2.ReadCleanReq_accesses::.cpu.inst         3980                       # number of ReadCleanReq accesses(hits+misses)
system.l2.ReadCleanReq_accesses::total           3980                       # number of ReadCleanReq accesses(hits+misses)
system.l2.ReadCleanReq_miss_rate::.cpu.inst     0.326884                       # miss rate for ReadCleanReq accesses
system.l2.ReadCleanReq_miss_rate::total      0.326884                       # miss rate for ReadCleanReq accesses
system.l2.ReadCleanReq_avg_miss_latency::.cpu.inst 76558.032283                       # average ReadCleanReq miss latency
system.l2.ReadCleanReq_avg_miss_latency::total 76558.032283                       # average ReadCleanReq miss latency
system.l2.ReadCleanReq_mshr_hits::.cpu.inst            1                       # number of ReadCleanReq MSHR hits
system.l2.ReadCleanReq_mshr_hits::total             1                       # number of ReadCleanReq MSHR hits
system.l2.ReadCleanReq_mshr_misses::.cpu.inst         1300                       # number of ReadCleanReq MSHR misses
system.l2.ReadCleanReq_mshr_misses::total         1300                       # number of ReadCleanReq MSHR misses
system.l2.ReadCleanReq_mshr_miss_latency::.cpu.inst     86538000                       # number of ReadCleanReq MSHR miss cycles
system.l2.ReadCleanReq_mshr_miss_latency::total     86538000                       # number of ReadCleanReq MSHR miss cycles
system.l2.ReadCleanReq_mshr_miss_rate::.cpu.inst     0.326633                       # mshr miss rate for ReadCleanReq accesses
system.l2.ReadCleanReq_mshr_miss_rate::total     0.326633                       # mshr miss rate for ReadCleanReq accesses
system.l2.ReadCleanReq_avg_mshr_miss_latency::.cpu.inst 66567.692308                       # average ReadCleanReq mshr miss latency
system.l2.ReadCleanReq_avg_mshr_miss_latency::total 66567.692308                       # average ReadCleanReq mshr miss latency
system.l2.ReadSharedReq_hits::.cpu.data       1043430                       # number of ReadSharedReq hits
system.l2.ReadSharedReq_hits::total           1043430                       # number of ReadSharedReq hits
system.l2.ReadSharedReq_misses::.cpu.data          523                       # number of ReadSharedReq misses
system.l2.ReadSharedReq_misses::total             523                       # number of ReadSharedReq misses
system.l2.ReadSharedReq_miss_latency::.cpu.data     41460000                       # number of ReadSharedReq miss cycles
system.l2.ReadSharedReq_miss_latency::total     41460000                       # number of ReadSharedReq miss cycles
system.l2.ReadSharedReq_accesses::.cpu.data      1043953                       # number of ReadSharedReq accesses(hits+misses)
system.l2.ReadSharedReq_accesses::total       1043953                       # number of ReadSharedReq accesses(hits+misses)
system.l2.ReadSharedReq_miss_rate::.cpu.data     0.000501                       # miss rate for ReadSharedReq accesses
system.l2.ReadSharedReq_miss_rate::total     0.000501                       # miss rate for ReadSharedReq accesses
system.l2.ReadSharedReq_avg_miss_latency::.cpu.data 79273.422562                       # average ReadSharedReq miss latency
system.l2.ReadSharedReq_avg_miss_latency::total 79273.422562                       # average ReadSharedReq miss latency
system.l2.ReadSharedReq_mshr_hits::.cpu.data            6                       # number of ReadSharedReq MSHR hits
system.l2.ReadSharedReq_mshr_hits::total            6                       # number of ReadSharedReq MSHR hits
system.l2.ReadSharedReq_mshr_misses::.cpu.data          517                       # number of ReadSharedReq MSHR misses
system.l2.ReadSharedReq_mshr_misses::total          517                       # number of ReadSharedReq MSHR misses
system.l2.ReadSharedReq_mshr_miss_latency::.cpu.data     35955500                       # number of ReadSharedReq MSHR miss cycles
system.l2.ReadSharedReq_mshr_miss_latency::total     35955500                       # number of ReadSharedReq MSHR miss cycles
system.l2.ReadSharedReq_mshr_miss_rate::.cpu.data     0.000495                       # mshr miss rate for ReadSharedReq accesses
system.l2.ReadSharedReq_mshr_miss_rate::total     0.000495                       # mshr miss rate for ReadSharedReq accesses
system.l2.ReadSharedReq_avg_mshr_miss_latency::.cpu.data 69546.421663                       # average ReadSharedReq mshr miss latency
system.l2.ReadSharedReq_avg_mshr_miss_latency::total 69546.421663                       # average ReadSharedReq mshr miss latency
system.l2.tags.pwrStateResidencyTicks::UNDEFINED  75354343500                       # Cumulative time (in ticks) in various power states
system.l2.tags.tagsinuse                  5275.233233                       # Cycle average of tags in use
system.l2.tags.total_refs                     2473839                       # Total number of references to valid blocks.
system.l2.tags.sampled_refs                      5484                       # Sample count of references to valid blocks.
system.l2.tags.avg_refs                    451.101204                       # Average number of references to valid blocks.
system.l2.tags.warmup_cycle                     77000                       # Cycle when the warmup percentage was hit.
system.l2.tags.occ_blocks::.cpu.inst      1293.850119                       # Average occupied blocks per requestor
system.l2.tags.occ_blocks::.cpu.data      3981.383114                       # Average occupied blocks per requestor
system.l2.tags.occ_percent::.cpu.inst        0.039485                       # Average percentage of cache occupancy
system.l2.tags.occ_percent::.cpu.data        0.121502                       # Average percentage of cache occupancy
system.l2.tags.occ_percent::total            0.160987                       # Average percentage of cache occupancy
system.l2.tags.occ_task_id_blocks::1024          5484                       # Occupied blocks per task id
system.l2.tags.age_task_id_blocks_1024::4         5484                       # Occupied blocks per task id
system.l2.tags.occ_task_id_percent::1024     0.167358                       # Percentage of cache occupancy per task id
system.l2.tags.tag_accesses                  19796252                       # Number of tag accesses
system.l2.tags.data_accesses                 19796252                       # Number of data accesses
system.cpu_voltage_domain.voltage                   1                       # Voltage in Volts
system.mem_ctrls.pwrStateResidencyTicks::UNDEFINED  75354343500                       # Cumulative time (in ticks) in various power states
system.mem_ctrls.bytes_read::.cpu.inst          83200                       # Number of bytes read from this memory
system.mem_ctrls.bytes_read::.cpu.data         267776                       # Number of bytes read from this memory
system.mem_ctrls.bytes_read::total             350976                       # Number of bytes read from this memory
system.mem_ctrls.bytes_inst_read::.cpu.inst        83200                       # Number of instructions bytes read from this memory
system.mem_ctrls.bytes_inst_read::total         83200                       # Number of instructions bytes read from this memory
system.mem_ctrls.num_reads::.cpu.inst            1300                       # Number of read requests responded to by this memory
system.mem_ctrls.num_reads::.cpu.data            4184                       # Number of read requests responded to by this memory
system.mem_ctrls.num_reads::total                5484                       # Number of read requests responded to by this memory
system.mem_ctrls.bw_read::.cpu.inst           1104117                       # Total read bandwidth from this memory (bytes/s)
system.mem_ctrls.bw_read::.cpu.data           3553558                       # Total read bandwidth from this memory (bytes/s)
system.mem_ctrls.bw_read::total               4657674                       # Total read bandwidth from this memory (bytes/s)
system.mem_ctrls.bw_inst_read::.cpu.inst      1104117                       # Instruction read bandwidth from this memory (bytes/s)
system.mem_ctrls.bw_inst_read::total          1104117                       # Instruction read bandwidth from this memory (bytes/s)
system.mem_ctrls.bw_total::.cpu.inst          1104117                       # Total bandwidth to/from this memory (bytes/s)
system.mem_ctrls.bw_total::.cpu.data          3553558                       # Total bandwidth to/from this memory (bytes/s)
system.mem_ctrls.bw_total::total              4657674                       # Total bandwidth to/from this memory (bytes/s)
system.mem_ctrls.avgPriority_.cpu.inst::samples      1300.00                       # Average QoS priority value for accepted requests
system.mem_ctrls.avgPriority_.cpu.data::samples      4184.00                       # Average QoS priority value for accepted requests
system.mem_ctrls.priorityMinLatency      0.000000018750                       # per QoS priority minimum request to response latency (s)
system.mem_ctrls.priorityMaxLatency      0.000000579500                       # per QoS priority maximum request to response latency (s)
system.mem_ctrls.numReadWriteTurnArounds            0                       # Number of turnarounds from READ to WRITE
system.mem_ctrls.numWriteReadTurnArounds            0                       # Number of turnarounds from WRITE to READ
system.mem_ctrls.numStayReadState               30312                       # Number of times bus staying in READ state
system.mem_ctrls.numStayWriteState                  0                       # Number of times bus staying in WRITE state
system.mem_ctrls.readReqs                        5484                       # Number of read requests accepted
system.mem_ctrls.writeReqs                          0                       # Number of write requests accepted
system.mem_ctrls.readBursts                      5484                       # Number of DRAM read bursts, including those serviced by the write queue
system.mem_ctrls.writeBursts                        0                       # Number of DRAM write bursts, including those merged in the write queue
system.mem_ctrls.servicedByWrQ                      0                       # Number of DRAM read bursts serviced by the write queue
system.mem_ctrls.mergedWrBursts                     0                       # Number of DRAM write bursts merged with an existing one
system.mem_ctrls.neitherReadNorWriteReqs            0                       # Number of requests that are neither read nor write
system.mem_ctrls.perBankRdBursts::0               253                       # Per bank write bursts
system.mem_ctrls.perBankRdBursts::1               295                       # Per bank write bursts
system.mem_ctrls.perBankRdBursts::2               184                       # Per bank write bursts
system.mem_ctrls.perBankRdBursts::3               374                       # Per bank write bursts
system.mem_ctrls.perBankRdBursts::4               419                       # Per bank write bursts
system.mem_ctrls.perBankRdBursts::5               373                       # Per bank write bursts
system.mem_ctrls.perBankRdBursts::6               377                       # Per bank write bursts
system.mem_ctrls.perBankRdBursts::7               400                       # Per bank write bursts
system.mem_ctrls.perBankRdBursts::8               359                       # Per bank write bursts
system.mem_ctrls.perBankRdBursts::9               370                       # Per bank write bursts
system.mem_ctrls.perBankRdBursts::10              408                       # Per bank write bursts
system.mem_ctrls.perBankRdBursts::11              288                       # Per bank write bursts
system.mem_ctrls.perBankRdBursts::12              311                       # Per bank write bursts
system.mem_ctrls.perBankRdBursts::13              340                       # Per bank write bursts
system.mem_ctrls.perBankRdBursts::14              400                       # Per bank write bursts
system.mem_ctrls.perBankRdBursts::15              333                       # Per bank write bursts
system.mem_ctrls.perBankWrBursts::0                 0                       # Per bank write bursts
system.mem_ctrls.perBankWrBursts::1                 0                       # Per bank write bursts
system.mem_ctrls.perBankWrBursts::2                 0                       # Per bank write bursts
system.mem_ctrls.perBankWrBursts::3                 0                       # Per bank write bursts
system.mem_ctrls.perBankWrBursts::4                 0                       # Per bank write bursts
system.mem_ctrls.perBankWrBursts::5                 0                       # Per bank write bursts
system.mem_ctrls.perBankWrBursts::6                 0                       # Per bank write bursts
system.mem_ctrls.perBankWrBursts::7                 0                       # Per bank write bursts
system.mem_ctrls.perBankWrBursts::8                 0                       # Per bank write bursts
system.mem_ctrls.perBankWrBursts::9                 0                       # Per bank write bursts
system.mem_ctrls.perBankWrBursts::10                0                       # Per bank write bursts
system.mem_ctrls.perBankWrBursts::11                0                       # Per bank write bursts
system.mem_ctrls.perBankWrBursts::12                0                       # Per bank write bursts
system.mem_ctrls.perBankWrBursts::13                0                       # Per bank write bursts
system.mem_ctrls.perBankWrBursts::14                0                       # Per bank write bursts
system.mem_ctrls.perBankWrBursts::15                0                       # Per bank write bursts
system.mem_ctrls.avgRdQLen                       1.01                       # Average read queue length when enqueuing
system.mem_ctrls.avgWrQLen                       0.00                       # Average write queue length when enqueuing
system.mem_ctrls.totQLat                     42056500                       # Total ticks spent queuing
system.mem_ctrls.totBusLat                   27420000                       # Total ticks spent in databus transfers
system.mem_ctrls.totMemAccLat               144881500                       # Total ticks spent from burst creation until serviced by the DRAM
system.mem_ctrls.avgQLat                      7668.95                       # Average queueing delay per DRAM burst
system.mem_ctrls.avgBusLat                    5000.00                       # Average bus latency per DRAM burst
system.mem_ctrls.avgMemAccLat                26418.95                       # Average memory access latency per DRAM burst
system.mem_ctrls.numRdRetry                         0                       # Number of times read queue was full causing retry
system.mem_ctrls.numWrRetry                         0                       # Number of times write queue was full causing retry
system.mem_ctrls.readRowHits                     4003                       # Number of row buffer hits during reads
system.mem_ctrls.writeRowHits                       0                       # Number of row buffer hits during writes
system.mem_ctrls.readRowHitRate                 72.99                       # Row buffer hit rate for reads
system.mem_ctrls.writeRowHitRate                  nan                       # Row buffer hit rate for writes
system.mem_ctrls.readPktSize::0                     0                       # Read request sizes (log2)
system.mem_ctrls.readPktSize::1                     0                       # Read request sizes (log2)
system.mem_ctrls.readPktSize::2                     0                       # Read request sizes (log2)
system.mem_ctrls.readPktSize::3                     0                       # Read request sizes (log2)
system.mem_ctrls.readPktSize::4                     0                       # Read request sizes (log2)
system.mem_ctrls.readPktSize::5                     0                       # Read request sizes (log2)
system.mem_ctrls.readPktSize::6                  5484                       # Read request sizes (log2)
system.mem_ctrls.writePktSize::0                    0                       # Write request sizes (log2)
system.mem_ctrls.writePktSize::1                    0                       # Write request sizes (log2)
system.mem_ctrls.writePktSize::2                    0                       # Write request sizes (log2)
system.mem_ctrls.writePktSize::3                    0                       # Write request sizes (log2)
system.mem_ctrls.writePktSize::4                    0                       # Write request sizes (log2)
system.mem_ctrls.writePktSize::5                    0                       # Write request sizes (log2)
system.mem_ctrls.writePktSize::6                    0                       # Write request sizes (log2)
system.mem_ctrls.rdQLenPdf::0                    5172                       # What read queue length does an incoming req see
system.mem_ctrls.rdQLenPdf::1                     293                       # What read queue length does an incoming req see
system.mem_ctrls.rdQLenPdf::2                      18                       # What read queue length does an incoming req see
system.mem_ctrls.rdQLenPdf::3                       1                       # What read queue length does an incoming req see
system.mem_ctrls.rdQLenPdf::4                       0                       # What read queue length does an incoming req see
system.mem_ctrls.rdQLenPdf::5                       0                       # What read queue length does an incoming req see
system.mem_ctrls.rdQLenPdf::6                       0                       # What read queue length does an incoming req see
system.mem_ctrls.rdQLenPdf::7                       0                       # What read queue length does an incoming req see
system.mem_ctrls.rdQLenPdf::8                       0                       # What read queue length does an incoming req see
system.mem_ctrls.rdQLenPdf::9                       0                       # What read queue length does an incoming req see
system.mem_ctrls.rdQLenPdf::10                      0                       # What read queue length does an incoming req see
system.mem_ctrls.rdQLenPdf::11                      0                       # What read queue length does an incoming req see
system.mem_ctrls.rdQLenPdf::12                      0                       # What read queue length does an incoming req see
system.mem_ctrls.rdQLenPdf::13                      0                       # What read queue length does an incoming req see
system.mem_ctrls.rdQLenPdf::14                      0                       # What read queue length does an incoming req see
system.mem_ctrls.rdQLenPdf::15                      0                       # What read queue length does an incoming req see
system.mem_ctrls.rdQLenPdf::16                      0                       # What read queue length does an incoming req see
system.mem_ctrls.rdQLenPdf::17                      0                       # What read queue length does an incoming req see
system.mem_ctrls.rdQLenPdf::18                      0                       # What read queue length does an incoming req see
system.mem_ctrls.rdQLenPdf::19                      0                       # What read queue length does an incoming req see
system.mem_ctrls.rdQLenPdf::20                      0                       # What read queue length does an incoming req see
system.mem_ctrls.rdQLenPdf::21                      0                       # What read queue length does an incoming req see
system.mem_ctrls.rdQLenPdf::22                      0                       # What read queue length does an incoming req see
system.mem_ctrls.rdQLenPdf::23                      0                       # What read queue length does an incoming req see
system.mem_ctrls.rdQLenPdf::24                      0                       # What read queue length does an incoming req see
system.mem_ctrls.rdQLenPdf::25                      0                       # What read queue length does an incoming req see
system.mem_ctrls.rdQLenPdf::26                      0                       # What read queue length does an incoming req see
system.mem_ctrls.rdQLenPdf::27                      0                       # What read queue length does an incoming req see
system.mem_ctrls.rdQLenPdf::28                      0                       # What read queue length does an incoming req see
system.mem_ctrls.rdQLenPdf::29                      0                       # What read queue length does an incoming req see
system.mem_ctrls.rdQLenPdf::30                      0                       # What read queue length does an incoming req see
system.mem_ctrls.rdQLenPdf::31                      0                       # What read queue length does an incoming req see
system.mem_ctrls.wrQLenPdf::0                       0                       # What write queue length does an incoming req see
system.mem_ctrls.wrQLenPdf::1                       0                       # What write queue length does an incoming req see
system.mem_ctrls.wrQLenPdf::2                       0                       # What write queue length does an incoming req see
system.mem_ctrls.wrQLenPdf::3                       0                       # What write queue length does an incoming req see
system.mem_ctrls.wrQLenPdf::4                       0                       # What write queue length does an incoming req see
system.mem_ctrls.wrQLenPdf::5                       0                       # What write queue length does an incoming req see
system.mem_ctrls.wrQLenPdf::6                       0                       # What write queue length does an incoming req see
system.mem_ctrls.wrQLenPdf::7                       0                       # What write queue length does an incoming req see
system.mem_ctrls.wrQLenPdf::8                       0                       # What write queue length does an incoming req see
system.mem_ctrls.wrQLenPdf::9                       0                       # What write queue length does an incoming req see
system.mem_ctrls.wrQLenPdf::10                      0                       # What write queue length does an incoming req see
system.mem_ctrls.wrQLenPdf::11                      0                       # What write queue length does an incoming req see
system.mem_ctrls.wrQLenPdf::12                      0                       # What write queue length does an incoming req see
system.mem_ctrls.wrQLenPdf::13                      0                       # What write queue length does an incoming req see
system.mem_ctrls.wrQLenPdf::14                      0                       # What write queue length does an incoming req see
system.mem_ctrls.wrQLenPdf::15                      0                       # What write queue length does an incoming req see
system.mem_ctrls.wrQLenPdf::16                      0                       # What write queue length does an incoming req see
system.mem_ctrls.wrQLenPdf::17                      0                       # What write queue length does an incoming req see
system.mem_ctrls.wrQLenPdf::18                      0                       # What write queue length does an incoming req see
system.mem_ctrls.wrQLenPdf::19                      0                       # What write queue length does an incoming req see
system.mem_ctrls.wrQLenPdf::20                      0                       # What write queue length does an incoming req see
system.mem_ctrls.wrQLenPdf::21                      0                       # What write queue length does an incoming req see
system.mem_ctrls.wrQLenPdf::22                      0                       # What write queue length does an incoming req see
system.mem_ctrls.wrQLenPdf::23                      0                       # What write queue length does an incoming req see
system.mem_ctrls.wrQLenPdf::24                      0                       # What write queue length does an incoming req see
system.mem_ctrls.wrQLenPdf::25                      0                       # What write queue length does an incoming req see
system.mem_ctrls.wrQLenPdf::26                      0                       # What write queue length does an incoming req see
system.mem_ctrls.wrQLenPdf::27                      0                       # What write queue length does an incoming req see
system.mem_ctrls.wrQLenPdf::28                      0                       # What write queue length does an incoming req see
system.mem_ctrls.wrQLenPdf::29                      0                       # What write queue length does an incoming req see
system.mem_ctrls.wrQLenPdf::30                      0                       # What write queue length does an incoming req see
system.mem_ctrls.wrQLenPdf::31                      0                       # What write queue length does an incoming req see
system.mem_ctrls.wrQLenPdf::32                      0                       # What write queue length does an incoming req see
system.mem_ctrls.wrQLenPdf::33                      0                       # What write queue length does an incoming req see
system.mem_ctrls.wrQLenPdf::34                      0                       # What write queue length does an incoming req see
system.mem_ctrls.wrQLenPdf::35                      0                       # What write queue length does an incoming req see
system.mem_ctrls.wrQLenPdf::36                      0                       # What write queue length does an incoming req see
system.mem_ctrls.wrQLenPdf::37                      0                       # What write queue length does an incoming req see
system.mem_ctrls.wrQLenPdf::38                      0                       # What write queue length does an incoming req see
system.mem_ctrls.wrQLenPdf::39                      0                       # What write queue length does an incoming req see
system.mem_ctrls.wrQLenPdf::40                      0                       # What write queue length does an incoming req see
system.mem_ctrls.wrQLenPdf::41                      0                       # What write queue length does an incoming req see
system.mem_ctrls.wrQLenPdf::42                      0                       # What write queue length does an incoming req see
system.mem_ctrls.wrQLenPdf::43                      0                       # What write queue length does an incoming req see
system.mem_ctrls.wrQLenPdf::44                      0                       # What write queue length does an incoming req see
system.mem_ctrls.wrQLenPdf::45                      0                       # What write queue length does an incoming req see
system.mem_ctrls.wrQLenPdf::46                      0                       # What write queue length does an incoming req see
system.mem_ctrls.wrQLenPdf::47                      0                       # What write queue length does an incoming req see
system.mem_ctrls.wrQLenPdf::48                      0                       # What write queue length does an incoming req see
system.mem_ctrls.wrQLenPdf::49                      0                       # What write queue length does an incoming req see
system.mem_ctrls.wrQLenPdf::50                      0                       # What write queue length does an incoming req see
system.mem_ctrls.wrQLenPdf::51                      0                       # What write queue length does an incoming req see
system.mem_ctrls.wrQLenPdf::52                      0                       # What write queue length does an incoming req see
system.mem_ctrls.wrQLenPdf::53                      0                       # What write queue length does an incoming req see
system.mem_ctrls.wrQLenPdf::54                      0                       # What write queue length does an incoming req see
system.mem_ctrls.wrQLenPdf::55                      0                       # What write queue length does an incoming req see
system.mem_ctrls.wrQLenPdf::56                      0                       # What write queue length does an incoming req see
system.mem_ctrls.wrQLenPdf::57                      0                       # What write queue length does an incoming req see
system.mem_ctrls.wrQLenPdf::58                      0                       # What write queue length does an incoming req see
system.mem_ctrls.wrQLenPdf::59                      0                       # What write queue length does an incoming req see
system.mem_ctrls.wrQLenPdf::60                      0                       # What write queue length does an incoming req see
system.mem_ctrls.wrQLenPdf::61                      0                       # What write queue length does an incoming req see
system.mem_ctrls.wrQLenPdf::62                      0                       # What write queue length does an incoming req see
system.mem_ctrls.wrQLenPdf::63                      0                       # What write queue length does an incoming req see
system.mem_ctrls.bytesPerActivate::samples         1481                       # Bytes accessed per row activation
system.mem_ctrls.bytesPerActivate::mean    236.985820                       # Bytes accessed per row activation
system.mem_ctrls.bytesPerActivate::gmean   156.246627                       # Bytes accessed per row activation
system.mem_ctrls.bytesPerActivate::stdev   272.583298                       # Bytes accessed per row activation
system.mem_ctrls.bytesPerActivate::0-127          420     28.36%     28.36% # Bytes accessed per row activation
system.mem_ctrls.bytesPerActivate::128-255          745     50.30%     78.66% # Bytes accessed per row activation
system.mem_ctrls.bytesPerActivate::256-383           80      5.40%     84.06% # Bytes accessed per row activation
system.mem_ctrls.bytesPerActivate::384-511           43      2.90%     86.97% # Bytes accessed per row activation
system.mem_ctrls.bytesPerActivate::512-639           30      2.03%     88.99% # Bytes accessed per row activation
system.mem_ctrls.bytesPerActivate::640-767           19      1.28%     90.28% # Bytes accessed per row activation
system.mem_ctrls.bytesPerActivate::768-895           16      1.08%     91.36% # Bytes accessed per row activation
system.mem_ctrls.bytesPerActivate::896-1023           10      0.68%     92.03% # Bytes accessed per row activation
system.mem_ctrls.bytesPerActivate::1024-1151          118      7.97%    100.00% # Bytes accessed per row activation
system.mem_ctrls.bytesPerActivate::total         1481                       # Bytes accessed per row activation
system.mem_ctrls.bytesReadDRAM                 350976                       # Total number of bytes read from DRAM
system.mem_ctrls.bytesReadWrQ                       0                       # Total number of bytes read from write queue
system.mem_ctrls.bytesWritten                       0                       # Total number of bytes written to DRAM
system.mem_ctrls.bytesReadSys                  350976                       # Total read bytes from the system interface side
system.mem_ctrls.bytesWrittenSys                    0                       # Total written bytes from the system interface side
system.mem_ctrls.avgRdBW                         4.66                       # Average DRAM read bandwidth in MiByte/s
system.mem_ctrls.avgWrBW                         0.00                       # Average achieved write bandwidth in MiByte/s
system.mem_ctrls.avgRdBWSys                      4.66                       # Average system read bandwidth in MiByte/s
system.mem_ctrls.avgWrBWSys                      0.00                       # Average system write bandwidth in MiByte/s
system.mem_ctrls.peakBW                      12800.00                       # Theoretical peak bandwidth in MiByte/s
system.mem_ctrls.busUtil                         0.04                       # Data bus utilization in percentage
system.mem_ctrls.busUtilRead                     0.04                       # Data bus utilization in percentage for reads
system.mem_ctrls.busUtilWrite                    0.00                       # Data bus utilization in percentage for writes
system.mem_ctrls.totGap                   20488274000                       # Total gap between requests
system.mem_ctrls.avgGap                    3736009.12                       # Average gap between requests
system.mem_ctrls.masterReadBytes::.cpu.inst        83200                       # Per-master bytes read from memory
system.mem_ctrls.masterReadBytes::.cpu.data       267776                       # Per-master bytes read from memory
system.mem_ctrls.masterReadRate::.cpu.inst 1104116.844969925238                       # Per-master bytes read from memory rate (Bytes/sec)
system.mem_ctrls.masterReadRate::.cpu.data 3553557.599503205623                       # Per-master bytes read from memory rate (Bytes/sec)
system.mem_ctrls.masterReadAccesses::.cpu.inst         1300                       # Per-master read serviced memory accesses
system.mem_ctrls.masterReadAccesses::.cpu.data         4184                       # Per-master read serviced memory accesses
system.mem_ctrls.masterReadTotalLat::.cpu.inst     33309000                       # Per-master read total memory access latency
system.mem_ctrls.masterReadTotalLat::.cpu.data    111572500                       # Per-master read total memory access latency
system.mem_ctrls.masterReadAvgLat::.cpu.inst     25622.31                       # Per-master read average memory access latency
system.mem_ctrls.masterReadAvgLat::.cpu.data     26666.47                       # Per-master read average memory access latency
system.mem_ctrls.pageHitRate                    72.99                       # Row buffer hit rate, read and write combined
system.mem_ctrls.rank1.actEnergy              5247900                       # Energy for activate commands per rank (pJ)
[...]
system.cpu.icache.tags.occ_percent::.cpu.inst     0.991349                       # Average percentage of cache occupancy
system.cpu.icache.tags.occ_percent::total     0.991349                       # Average percentage of cache occupancy
system.cpu.icache.tags.occ_task_id_blocks::1024          508                       # Occupied blocks per task id
system.cpu.icache.tags.age_task_id_blocks_1024::2           12                       # Occupied blocks per task id
system.cpu.icache.tags.age_task_id_blocks_1024::3           15                       # Occupied blocks per task id
system.cpu.icache.tags.age_task_id_blocks_1024::4          481                       # Occupied blocks per task id
system.cpu.icache.tags.occ_task_id_percent::1024     0.992188                       # Percentage of cache occupancy per task id
system.cpu.icache.tags.tag_accesses          34666060                       # Number of tag accesses
system.cpu.icache.tags.data_accesses         34666060                       # Number of data accesses
system.cpu.dtb.walker.pwrStateResidencyTicks::UNDEFINED  75354343500                       # Cumulative time (in ticks) in various power states
system.cpu.dtb.stage2_mmu.stage2_tlb.walker.pwrStateResidencyTicks::UNDEFINED  75354343500                       # Cumulative time (in ticks) in various power states
system.cpu.dcache.pwrStateResidencyTicks::UNDEFINED  75354343500                       # Cumulative time (in ticks) in various power states
system.cpu.dcache.demand_hits::.cpu.data     42625091                       # number of demand (read+write) hits
system.cpu.dcache.demand_hits::total         42625091                       # number of demand (read+write) hits
system.cpu.dcache.overall_hits::.cpu.data     42628946                       # number of overall hits
system.cpu.dcache.overall_hits::total        42628946                       # number of overall hits
system.cpu.dcache.demand_misses::.cpu.data      1270176                       # number of demand (read+write) misses
system.cpu.dcache.demand_misses::total        1270176                       # number of demand (read+write) misses
system.cpu.dcache.overall_misses::.cpu.data      1275051                       # number of overall misses
system.cpu.dcache.overall_misses::total       1275051                       # number of overall misses
system.cpu.dcache.demand_miss_latency::.cpu.data  20521191999                       # number of demand (read+write) miss cycles
system.cpu.dcache.demand_miss_latency::total  20521191999                       # number of demand (read+write) miss cycles
system.cpu.dcache.overall_miss_latency::.cpu.data  20521191999                       # number of overall miss cycles
system.cpu.dcache.overall_miss_latency::total  20521191999                       # number of overall miss cycles
system.cpu.dcache.demand_accesses::.cpu.data     43895267                       # number of demand (read+write) accesses
system.cpu.dcache.demand_accesses::total     43895267                       # number of demand (read+write) accesses
system.cpu.dcache.overall_accesses::.cpu.data     43903997                       # number of overall (read+write) accesses
system.cpu.dcache.overall_accesses::total     43903997                       # number of overall (read+write) accesses
system.cpu.dcache.demand_miss_rate::.cpu.data     0.028937                       # miss rate for demand accesses
system.cpu.dcache.demand_miss_rate::total     0.028937                       # miss rate for demand accesses
system.cpu.dcache.overall_miss_rate::.cpu.data     0.029042                       # miss rate for overall accesses
system.cpu.dcache.overall_miss_rate::total     0.029042                       # miss rate for overall accesses
system.cpu.dcache.demand_avg_miss_latency::.cpu.data 16156.179930                       # average overall miss latency
system.cpu.dcache.demand_avg_miss_latency::total 16156.179930                       # average overall miss latency
system.cpu.dcache.overall_avg_miss_latency::.cpu.data 16094.408772                       # average overall miss latency
system.cpu.dcache.overall_avg_miss_latency::total 16094.408772                       # average overall miss latency
system.cpu.dcache.blocked_cycles::no_mshrs          399                       # number of cycles access was blocked
system.cpu.dcache.blocked_cycles::no_targets            0                       # number of cycles access was blocked
system.cpu.dcache.blocked::no_mshrs                15                       # number of cycles access was blocked
system.cpu.dcache.blocked::no_targets               0                       # number of cycles access was blocked
system.cpu.dcache.avg_blocked_cycles::no_mshrs    26.600000                       # average number of cycles each access was blocked
system.cpu.dcache.avg_blocked_cycles::no_targets          nan                       # average number of cycles each access was blocked
system.cpu.dcache.writebacks::.writebacks      1146375                       # number of writebacks
system.cpu.dcache.writebacks::total           1146375                       # number of writebacks
system.cpu.dcache.demand_mshr_hits::.cpu.data        35652                       # number of demand (read+write) MSHR hits
system.cpu.dcache.demand_mshr_hits::total        35652                       # number of demand (read+write) MSHR hits
system.cpu.dcache.overall_mshr_hits::.cpu.data        35652                       # number of overall MSHR hits
system.cpu.dcache.overall_mshr_hits::total        35652                       # number of overall MSHR hits
system.cpu.dcache.demand_mshr_misses::.cpu.data      1234524                       # number of demand (read+write) MSHR misses
system.cpu.dcache.demand_mshr_misses::total      1234524                       # number of demand (read+write) MSHR misses
system.cpu.dcache.overall_mshr_misses::.cpu.data      1239367                       # number of overall MSHR misses
system.cpu.dcache.overall_mshr_misses::total      1239367                       # number of overall MSHR misses
system.cpu.dcache.demand_mshr_miss_latency::.cpu.data  18678562000                       # number of demand (read+write) MSHR miss cycles
system.cpu.dcache.demand_mshr_miss_latency::total  18678562000                       # number of demand (read+write) MSHR miss cycles
system.cpu.dcache.overall_mshr_miss_latency::.cpu.data  18742960500                       # number of overall MSHR miss cycles
system.cpu.dcache.overall_mshr_miss_latency::total  18742960500                       # number of overall MSHR miss cycles
system.cpu.dcache.demand_mshr_miss_rate::.cpu.data     0.028124                       # mshr miss rate for demand accesses
system.cpu.dcache.demand_mshr_miss_rate::total     0.028124                       # mshr miss rate for demand accesses
system.cpu.dcache.overall_mshr_miss_rate::.cpu.data     0.028229                       # mshr miss rate for overall accesses
system.cpu.dcache.overall_mshr_miss_rate::total     0.028229                       # mshr miss rate for overall accesses
system.cpu.dcache.demand_avg_mshr_miss_latency::.cpu.data 15130.173249                       # average overall mshr miss latency
system.cpu.dcache.demand_avg_mshr_miss_latency::total 15130.173249                       # average overall mshr miss latency
system.cpu.dcache.overall_avg_mshr_miss_latency::.cpu.data 15123.010779                       # average overall mshr miss latency
system.cpu.dcache.overall_avg_mshr_miss_latency::total 15123.010779                       # average overall mshr miss latency
system.cpu.dcache.replacements                1239341                       # number of replacements
system.cpu.dcache.ReadReq_hits::.cpu.data     36513252                       # number of ReadReq hits
system.cpu.dcache.ReadReq_hits::total        36513252                       # number of ReadReq hits
system.cpu.dcache.ReadReq_misses::.cpu.data      1060890                       # number of ReadReq misses
system.cpu.dcache.ReadReq_misses::total       1060890                       # number of ReadReq misses
system.cpu.dcache.ReadReq_miss_latency::.cpu.data  16828309500                       # number of ReadReq miss cycles
system.cpu.dcache.ReadReq_miss_latency::total  16828309500                       # number of ReadReq miss cycles
system.cpu.dcache.ReadReq_accesses::.cpu.data     37574142                       # number of ReadReq accesses(hits+misses)
system.cpu.dcache.ReadReq_accesses::total     37574142                       # number of ReadReq accesses(hits+misses)
system.cpu.dcache.ReadReq_miss_rate::.cpu.data     0.028235                       # miss rate for ReadReq accesses
system.cpu.dcache.ReadReq_miss_rate::total     0.028235                       # miss rate for ReadReq accesses
system.cpu.dcache.ReadReq_avg_miss_latency::.cpu.data 15862.445211                       # average ReadReq miss latency
system.cpu.dcache.ReadReq_avg_miss_latency::total 15862.445211                       # average ReadReq miss latency
system.cpu.dcache.ReadReq_mshr_hits::.cpu.data        21768                       # number of ReadReq MSHR hits
system.cpu.dcache.ReadReq_mshr_hits::total        21768                       # number of ReadReq MSHR hits
system.cpu.dcache.ReadReq_mshr_misses::.cpu.data      1039122                       # number of ReadReq MSHR misses
system.cpu.dcache.ReadReq_mshr_misses::total      1039122                       # number of ReadReq MSHR misses
system.cpu.dcache.ReadReq_mshr_miss_latency::.cpu.data  15489444000                       # number of ReadReq MSHR miss cycles
system.cpu.dcache.ReadReq_mshr_miss_latency::total  15489444000                       # number of ReadReq MSHR miss cycles
system.cpu.dcache.ReadReq_mshr_miss_rate::.cpu.data     0.027655                       # mshr miss rate for ReadReq accesses
system.cpu.dcache.ReadReq_mshr_miss_rate::total     0.027655                       # mshr miss rate for ReadReq accesses
system.cpu.dcache.ReadReq_avg_mshr_miss_latency::.cpu.data 14906.280494                       # average ReadReq mshr miss latency
system.cpu.dcache.ReadReq_avg_mshr_miss_latency::total 14906.280494                       # average ReadReq mshr miss latency
system.cpu.dcache.WriteReq_hits::.cpu.data      6111839                       # number of WriteReq hits
system.cpu.dcache.WriteReq_hits::total        6111839                       # number of WriteReq hits
system.cpu.dcache.WriteReq_misses::.cpu.data       209286                       # number of WriteReq misses
system.cpu.dcache.WriteReq_misses::total       209286                       # number of WriteReq misses
system.cpu.dcache.WriteReq_miss_latency::.cpu.data   3692882499                       # number of WriteReq miss cycles
system.cpu.dcache.WriteReq_miss_latency::total   3692882499                       # number of WriteReq miss cycles
system.cpu.dcache.WriteReq_accesses::.cpu.data      6321125                       # number of WriteReq accesses(hits+misses)
system.cpu.dcache.WriteReq_accesses::total      6321125                       # number of WriteReq accesses(hits+misses)
system.cpu.dcache.WriteReq_miss_rate::.cpu.data     0.033109                       # miss rate for WriteReq accesses
system.cpu.dcache.WriteReq_miss_rate::total     0.033109                       # miss rate for WriteReq accesses
system.cpu.dcache.WriteReq_avg_miss_latency::.cpu.data 17645.148261                       # average WriteReq miss latency
system.cpu.dcache.WriteReq_avg_miss_latency::total 17645.148261                       # average WriteReq miss latency
system.cpu.dcache.WriteReq_mshr_hits::.cpu.data        13884                       # number of WriteReq MSHR hits
system.cpu.dcache.WriteReq_mshr_hits::total        13884                       # number of WriteReq MSHR hits
system.cpu.dcache.WriteReq_mshr_misses::.cpu.data       195402                       # number of WriteReq MSHR misses
system.cpu.dcache.WriteReq_mshr_misses::total       195402                       # number of WriteReq MSHR misses
system.cpu.dcache.WriteReq_mshr_miss_latency::.cpu.data   3189118000                       # number of WriteReq MSHR miss cycles
system.cpu.dcache.WriteReq_mshr_miss_latency::total   3189118000                       # number of WriteReq MSHR miss cycles
system.cpu.dcache.WriteReq_mshr_miss_rate::.cpu.data     0.030913                       # mshr miss rate for WriteReq accesses
system.cpu.dcache.WriteReq_mshr_miss_rate::total     0.030913                       # mshr miss rate for WriteReq accesses
system.cpu.dcache.WriteReq_avg_mshr_miss_latency::.cpu.data 16320.805314                       # average WriteReq mshr miss latency
system.cpu.dcache.WriteReq_avg_mshr_miss_latency::total 16320.805314                       # average WriteReq mshr miss latency
system.cpu.dcache.SoftPFReq_hits::.cpu.data         3855                       # number of SoftPFReq hits
system.cpu.dcache.SoftPFReq_hits::total          3855                       # number of SoftPFReq hits
system.cpu.dcache.SoftPFReq_misses::.cpu.data         4875                       # number of SoftPFReq misses
system.cpu.dcache.SoftPFReq_misses::total         4875                       # number of SoftPFReq misses
system.cpu.dcache.SoftPFReq_accesses::.cpu.data         8730                       # number of SoftPFReq accesses(hits+misses)
system.cpu.dcache.SoftPFReq_accesses::total         8730                       # number of SoftPFReq accesses(hits+misses)
system.cpu.dcache.SoftPFReq_miss_rate::.cpu.data     0.558419                       # miss rate for SoftPFReq accesses
system.cpu.dcache.SoftPFReq_miss_rate::total     0.558419                       # miss rate for SoftPFReq accesses
system.cpu.dcache.SoftPFReq_mshr_misses::.cpu.data         4843                       # number of SoftPFReq MSHR misses
system.cpu.dcache.SoftPFReq_mshr_misses::total         4843                       # number of SoftPFReq MSHR misses
system.cpu.dcache.SoftPFReq_mshr_miss_latency::.cpu.data     64398500                       # number of SoftPFReq MSHR miss cycles
system.cpu.dcache.SoftPFReq_mshr_miss_latency::total     64398500                       # number of SoftPFReq MSHR miss cycles
system.cpu.dcache.SoftPFReq_mshr_miss_rate::.cpu.data     0.554754                       # mshr miss rate for SoftPFReq accesses
system.cpu.dcache.SoftPFReq_mshr_miss_rate::total     0.554754                       # mshr miss rate for SoftPFReq accesses
system.cpu.dcache.SoftPFReq_avg_mshr_miss_latency::.cpu.data 13297.233120                       # average SoftPFReq mshr miss latency
system.cpu.dcache.SoftPFReq_avg_mshr_miss_latency::total 13297.233120                       # average SoftPFReq mshr miss latency
system.cpu.dcache.LoadLockedReq_hits::.cpu.data          160                       # number of LoadLockedReq hits
system.cpu.dcache.LoadLockedReq_hits::total          160                       # number of LoadLockedReq hits
system.cpu.dcache.LoadLockedReq_misses::.cpu.data            6                       # number of LoadLockedReq misses
system.cpu.dcache.LoadLockedReq_misses::total            6                       # number of LoadLockedReq misses
system.cpu.dcache.LoadLockedReq_miss_latency::.cpu.data       167000                       # number of LoadLockedReq miss cycles
system.cpu.dcache.LoadLockedReq_miss_latency::total       167000                       # number of LoadLockedReq miss cycles
system.cpu.dcache.LoadLockedReq_accesses::.cpu.data          166                       # number of LoadLockedReq accesses(hits+misses)
system.cpu.dcache.LoadLockedReq_accesses::total          166                       # number of LoadLockedReq accesses(hits+misses)
system.cpu.dcache.LoadLockedReq_miss_rate::.cpu.data     0.036145                       # miss rate for LoadLockedReq accesses
system.cpu.dcache.LoadLockedReq_miss_rate::total     0.036145                       # miss rate for LoadLockedReq accesses
system.cpu.dcache.LoadLockedReq_avg_miss_latency::.cpu.data 27833.333333                       # average LoadLockedReq miss latency
system.cpu.dcache.LoadLockedReq_avg_miss_latency::total 27833.333333                       # average LoadLockedReq miss latency
system.cpu.dcache.LoadLockedReq_mshr_misses::.cpu.data            6                       # number of LoadLockedReq MSHR misses
system.cpu.dcache.LoadLockedReq_mshr_misses::total            6                       # number of LoadLockedReq MSHR misses
system.cpu.dcache.LoadLockedReq_mshr_miss_latency::.cpu.data       161000                       # number of LoadLockedReq MSHR miss cycles
system.cpu.dcache.LoadLockedReq_mshr_miss_latency::total       161000                       # number of LoadLockedReq MSHR miss cycles
system.cpu.dcache.LoadLockedReq_mshr_miss_rate::.cpu.data     0.036145                       # mshr miss rate for LoadLockedReq accesses
system.cpu.dcache.LoadLockedReq_mshr_miss_rate::total     0.036145                       # mshr miss rate for LoadLockedReq accesses
system.cpu.dcache.LoadLockedReq_avg_mshr_miss_latency::.cpu.data 26833.333333                       # average LoadLockedReq mshr miss latency
system.cpu.dcache.LoadLockedReq_avg_mshr_miss_latency::total 26833.333333                       # average LoadLockedReq mshr miss latency
system.cpu.dcache.StoreCondReq_hits::.cpu.data          166                       # number of StoreCondReq hits
system.cpu.dcache.StoreCondReq_hits::total          166                       # number of StoreCondReq hits
system.cpu.dcache.StoreCondReq_accesses::.cpu.data          166                       # number of StoreCondReq accesses(hits+misses)
system.cpu.dcache.StoreCondReq_accesses::total          166                       # number of StoreCondReq accesses(hits+misses)
system.cpu.dcache.tags.pwrStateResidencyTicks::UNDEFINED  75354343500                       # Cumulative time (in ticks) in various power states
system.cpu.dcache.tags.tagsinuse            31.998359                       # Cycle average of tags in use
system.cpu.dcache.tags.total_refs            43868645                       # Total number of references to valid blocks.
system.cpu.dcache.tags.sampled_refs           1239373                       # Sample count of references to valid blocks.
system.cpu.dcache.tags.avg_refs             35.395837                       # Average number of references to valid blocks.
system.cpu.dcache.tags.warmup_cycle            176500                       # Cycle when the warmup percentage was hit.
system.cpu.dcache.tags.occ_blocks::.cpu.data    31.998359                       # Average occupied blocks per requestor
system.cpu.dcache.tags.occ_percent::.cpu.data     0.999949                       # Average percentage of cache occupancy
system.cpu.dcache.tags.occ_percent::total     0.999949                       # Average percentage of cache occupancy
system.cpu.dcache.tags.occ_task_id_blocks::1024           32                       # Occupied blocks per task id
system.cpu.dcache.tags.age_task_id_blocks_1024::0           21                       # Occupied blocks per task id
system.cpu.dcache.tags.age_task_id_blocks_1024::1           11                       # Occupied blocks per task id
system.cpu.dcache.tags.occ_task_id_percent::1024            1                       # Percentage of cache occupancy per task id
system.cpu.dcache.tags.tag_accesses          89048031                       # Number of tag accesses
system.cpu.dcache.tags.data_accesses         89048031                       # Number of data accesses
system.cpu.itb.walker.pwrStateResidencyTicks::UNDEFINED  75354343500                       # Cumulative time (in ticks) in various power states
system.cpu.itb.stage2_mmu.stage2_tlb.walker.pwrStateResidencyTicks::UNDEFINED  75354343500                       # Cumulative time (in ticks) in various power states

---------- End Simulation Statistics   ----------
