
---------- Begin Simulation Statistics ----------
final_tick                                85589643500                       # Number of ticks from beginning of simulation (restored from checkpoints and never reset)
host_inst_rate                                 259975                       # Simulator instruction rate (inst/s)
host_mem_usage                                 691644                       # Number of bytes of host memory used
host_op_rate                                   260485                       # Simulator op (including micro ops) rate (op/s)
host_seconds                                   384.65                       # Real time elapsed on the host
host_tick_rate                              222511475                       # Simulator tick rate (ticks/s)
sim_freq                                 1000000000000                       # Frequency of simulated ticks
sim_insts                                   100000000                       # Number of instructions simulated
sim_ops                                     100196365                       # Number of ops (including micro ops) simulated
sim_seconds                                  0.085590                       # Number of seconds simulated
sim_ticks                                 85589643500                       # Number of ticks simulated
system.cpu.branchPred.BTBCorrect                    0                       # Number of correct BTB predictions (this stat may not work properly.
system.cpu.branchPred.BTBHitPct             99.694174                       # BTB Hit Percentage
system.cpu.branchPred.BTBHits                 2095422                       # Number of BTB hits
system.cpu.branchPred.BTBLookups              2101850                       # Number of BTB lookups
system.cpu.branchPred.RASInCorrect                  5                       # Number of incorrect RAS predictions.
system.cpu.branchPred.condIncorrect             81341                       # Number of conditional branches incorrect
system.cpu.branchPred.condPredicted           3727710                       # Number of conditional branches predicted
system.cpu.branchPred.indirectHits                291                       # Number of indirect target hits.
system.cpu.branchPred.indirectLookups             808                       # Number of indirect predictor lookups.
system.cpu.branchPred.indirectMisses              517                       # Number of indirect misses.
system.cpu.branchPred.lookups                 4477811                       # Number of BP lookups
system.cpu.branchPred.usedRAS                   65344                       # Number of times the RAS was used to get a target.
system.cpu.branchPredindirectMispredicted          171                       # Number of mispredicted indirect branches.
system.cpu.committedInsts                   100000000                       # Number of instructions committed
system.cpu.committedOps                     100196365                       # Number of ops (including micro ops) committed
system.cpu.cpi                               1.711793                       # CPI: cycles per instruction
system.cpu.discardedOps                        190725                       # Number of ops (including micro ops) which were discarded before commit
system.cpu.dtb.accesses                             0                       # DTB accesses
system.cpu.dtb.align_faults                         0                       # Number of TLB faults due to alignment restrictions
system.cpu.dtb.domain_faults                        0                       # Number of TLB faults due to domain restrictions
system.cpu.dtb.flush_entries                        0                       # Number of entries that have been flushed from TLB
system.cpu.dtb.flush_tlb                            0                       # Number of times complete TLB was flushed
system.cpu.dtb.flush_tlb_asid                       0                       # Number of times TLB was flushed by ASID
system.cpu.dtb.flush_tlb_mva                        0                       # Number of times TLB was flushed by MVA
system.cpu.dtb.flush_tlb_mva_asid                   0                       # Number of times TLB was flushed by MVA & ASID
system.cpu.dtb.hits                                 0                       # DTB hits
system.cpu.dtb.inst_accesses                        0                       # ITB inst accesses
system.cpu.dtb.inst_hits                            0                       # ITB inst hits
system.cpu.dtb.inst_misses                          0                       # ITB inst misses
system.cpu.dtb.misses                               0                       # DTB misses
system.cpu.dtb.perms_faults                         0                       # Number of TLB faults due to permissions restrictions
system.cpu.dtb.prefetch_faults                      0                       # Number of TLB faults due to prefetch
system.cpu.dtb.read_accesses                        0                       # DTB read accesses
system.cpu.dtb.read_hits                            0                       # DTB read hits
system.cpu.dtb.read_misses                          0                       # DTB read misses
system.cpu.dtb.stage2_mmu.stage2_tlb.accesses            0                       # DTB accesses
system.cpu.dtb.stage2_mmu.stage2_tlb.align_faults            0                       # Number of TLB faults due to alignment restrictions
system.cpu.dtb.stage2_mmu.stage2_tlb.domain_faults            0                       # Number of TLB faults due to domain restrictions
system.cpu.dtb.stage2_mmu.stage2_tlb.flush_entries            0                       # Number of entries that have been flushed from TLB
system.cpu.dtb.stage2_mmu.stage2_tlb.flush_tlb            0                       # Number of times complete TLB was flushed
system.cpu.dtb.stage2_mmu.stage2_tlb.flush_tlb_asid            0                       # Number of times TLB was flushed by ASID
system.cpu.dtb.stage2_mmu.stage2_tlb.flush_tlb_mva            0                       # Number of times TLB was flushed by MVA
system.cpu.dtb.stage2_mmu.stage2_tlb.flush_tlb_mva_asid            0                       # Number of times TLB was flushed by MVA & ASID
system.cpu.dtb.stage2_mmu.stage2_tlb.hits            0                       # DTB hits
system.cpu.dtb.stage2_mmu.stage2_tlb.inst_accesses            0                       # ITB inst accesses
system.cpu.dtb.stage2_mmu.stage2_tlb.inst_hits            0                       # ITB inst hits
system.cpu.dtb.stage2_mmu.stage2_tlb.inst_misses            0                       # ITB inst misses
system.cpu.dtb.stage2_mmu.stage2_tlb.misses            0                       # DTB misses
system.cpu.dtb.stage2_mmu.stage2_tlb.perms_faults            0                       # Number of TLB faults due to permissions restrictions
system.cpu.dtb.stage2_mmu.stage2_tlb.prefetch_faults            0                       # Number of TLB faults due to prefetch
system.cpu.dtb.stage2_mmu.stage2_tlb.read_accesses            0                       # DTB read accesses
system.cpu.dtb.stage2_mmu.stage2_tlb.read_hits            0                       # DTB read hits
system.cpu.dtb.stage2_mmu.stage2_tlb.read_misses            0                       # DTB read misses
system.cpu.dtb.stage2_mmu.stage2_tlb.walker.walkRequestOrigin_Requested::Data            0                       # Table walker requests started/completed, data/inst
system.cpu.dtb.stage2_mmu.stage2_tlb.walker.walkRequestOrigin_Requested::Inst            0                       # Table walker requests started/completed, data/inst
system.cpu.dtb.stage2_mmu.stage2_tlb.walker.walkRequestOrigin_Requested::total            0                       # Table walker requests started/completed, data/inst
system.cpu.dtb.stage2_mmu.stage2_tlb.walker.walkRequestOrigin_Completed::Data            0                       # Table walker requests started/completed, data/inst
system.cpu.dtb.stage2_mmu.stage2_tlb.walker.walkRequestOrigin_Completed::Inst            0                       # Table walker requests started/completed, data/inst
system.cpu.dtb.stage2_mmu.stage2_tlb.walker.walkRequestOrigin_Completed::total            0                       # Table walker requests started/completed, data/inst
system.cpu.dtb.stage2_mmu.stage2_tlb.walker.walkRequestOrigin::total            0                       # Table walker requests started/completed, data/inst
system.cpu.dtb.stage2_mmu.stage2_tlb.walker.walks            0                       # Table walker walks requested
system.cpu.dtb.stage2_mmu.stage2_tlb.write_accesses            0                       # DTB write accesses
system.cpu.dtb.stage2_mmu.stage2_tlb.write_hits            0                       # DTB write hits
system.cpu.dtb.stage2_mmu.stage2_tlb.write_misses            0                       # DTB write misses
system.cpu.dtb.walker.walkRequestOrigin_Requested::Data            0                       # Table walker requests started/completed, data/inst
system.cpu.dtb.walker.walkRequestOrigin_Requested::Inst            0                       # Table walker requests started/completed, data/inst
system.cpu.dtb.walker.walkRequestOrigin_Requested::total            0                       # Table walker requests started/completed, data/inst
system.cpu.dtb.walker.walkRequestOrigin_Completed::Data            0                       # Table walker requests started/completed, data/inst
system.cpu.dtb.walker.walkRequestOrigin_Completed::Inst            0                       # Table walker requests started/completed, data/inst
system.cpu.dtb.walker.walkRequestOrigin_Completed::total            0                       # Table walker requests started/completed, data/inst
system.cpu.dtb.walker.walkRequestOrigin::total            0                       # Table walker requests started/completed, data/inst
system.cpu.dtb.walker.walks                         0                       # Table walker walks requested
system.cpu.dtb.write_accesses                       0                       # DTB write accesses
system.cpu.dtb.write_hits                           0                       # DTB write hits
system.cpu.dtb.write_misses                         0                       # DTB write misses
system.cpu.fetch2.amo_instructions                  0                       # Number of memory atomic instructions successfully decoded
system.cpu.fetch2.fp_instructions                   0                       # Number of floating point instructions successfully decoded
system.cpu.fetch2.int_instructions           42610325                       # Number of integer instructions successfully decoded
system.cpu.fetch2.load_instructions          43402486                       # Number of memory load instructions successfully decoded
system.cpu.fetch2.store_instructions         11001456                       # Number of memory store instructions successfully decoded
system.cpu.fetch2.vec_instructions                  0                       # Number of SIMD instructions successfully decoded
system.cpu.idleCycles                        38243444                       # Total number of cycles that the object has spent stopped
system.cpu.ipc                               0.584183                       # IPC: instructions per cycle
system.cpu.itb.accesses                             0                       # DTB accesses
system.cpu.itb.align_faults                         0                       # Number of TLB faults due to alignment restrictions
system.cpu.itb.domain_faults                        0                       # Number of TLB faults due to domain restrictions
system.cpu.itb.flush_entries                        0                       # Number of entries that have been flushed from TLB
system.cpu.itb.flush_tlb                            0                       # Number of times complete TLB was flushed
system.cpu.itb.flush_tlb_asid                       0                       # Number of times TLB was flushed by ASID
system.cpu.itb.flush_tlb_mva                        0                       # Number of times TLB was flushed by MVA
system.cpu.itb.flush_tlb_mva_asid                   0                       # Number of times TLB was flushed by MVA & ASID
system.cpu.itb.hits                                 0                       # DTB hits
system.cpu.itb.inst_accesses                        0                       # ITB inst accesses
system.cpu.itb.inst_hits                            0                       # ITB inst hits
system.cpu.itb.inst_misses                          0                       # ITB inst misses
system.cpu.itb.misses                               0                       # DTB misses
system.cpu.itb.perms_faults                         0                       # Number of TLB faults due to permissions restrictions
system.cpu.itb.prefetch_faults                      0                       # Number of TLB faults due to prefetch
system.cpu.itb.read_accesses                        0                       # DTB read accesses
system.cpu.itb.read_hits                            0                       # DTB read hits
system.cpu.itb.read_misses                          0                       # DTB read misses
system.cpu.itb.stage2_mmu.stage2_tlb.accesses            0                       # DTB accesses
system.cpu.itb.stage2_mmu.stage2_tlb.align_faults            0                       # Number of TLB faults due to alignment restrictions
system.cpu.itb.stage2_mmu.stage2_tlb.domain_faults            0                       # Number of TLB faults due to domain restrictions
system.cpu.itb.stage2_mmu.stage2_tlb.flush_entries            0                       # Number of entries that have been flushed from TLB
system.cpu.itb.stage2_mmu.stage2_tlb.flush_tlb            0                       # Number of times complete TLB was flushed
system.cpu.itb.stage2_mmu.stage2_tlb.flush_tlb_asid            0                       # Number of times TLB was flushed by ASID
system.cpu.itb.stage2_mmu.stage2_tlb.flush_tlb_mva            0                       # Number of times TLB was flushed by MVA
system.cpu.itb.stage2_mmu.stage2_tlb.flush_tlb_mva_asid            0                       # Number of times TLB was flushed by MVA & ASID
system.cpu.itb.stage2_mmu.stage2_tlb.hits            0                       # DTB hits
system.cpu.itb.stage2_mmu.stage2_tlb.inst_accesses            0                       # ITB inst accesses
system.cpu.itb.stage2_mmu.stage2_tlb.inst_hits            0                       # ITB inst hits
system.cpu.itb.stage2_mmu.stage2_tlb.inst_misses            0                       # ITB inst misses
system.cpu.itb.stage2_mmu.stage2_tlb.misses            0                       # DTB misses
system.cpu.itb.stage2_mmu.stage2_tlb.perms_faults            0                       # Number of TLB faults due to permissions restrictions
system.cpu.itb.stage2_mmu.stage2_tlb.prefetch_faults            0                       # Number of TLB faults due to prefetch
system.cpu.itb.stage2_mmu.stage2_tlb.read_accesses            0                       # DTB read accesses
system.cpu.itb.stage2_mmu.stage2_tlb.read_hits            0                       # DTB read hits
system.cpu.itb.stage2_mmu.stage2_tlb.read_misses            0                       # DTB read misses
system.cpu.itb.stage2_mmu.stage2_tlb.walker.walkRequestOrigin_Requested::Data            0                       # Table walker requests started/completed, data/inst
system.cpu.itb.stage2_mmu.stage2_tlb.walker.walkRequestOrigin_Requested::Inst            0                       # Table walker requests started/completed, data/inst
system.cpu.itb.stage2_mmu.stage2_tlb.walker.walkRequestOrigin_Requested::total            0                       # Table walker requests started/completed, data/inst
system.cpu.itb.stage2_mmu.stage2_tlb.walker.walkRequestOrigin_Completed::Data            0                       # Table walker requests started/completed, data/inst
system.cpu.itb.stage2_mmu.stage2_tlb.walker.walkRequestOrigin_Completed::Inst            0                       # Table walker requests started/completed, data/inst
system.cpu.itb.stage2_mmu.stage2_tlb.walker.walkRequestOrigin_Completed::total            0                       # Table walker requests started/completed, data/inst
system.cpu.itb.stage2_mmu.stage2_tlb.walker.walkRequestOrigin::total            0                       # Table walker requests started/completed, data/inst
system.cpu.itb.stage2_mmu.stage2_tlb.walker.walks            0                       # Table walker walks requested
system.cpu.itb.stage2_mmu.stage2_tlb.write_accesses            0                       # DTB write accesses
system.cpu.itb.stage2_mmu.stage2_tlb.write_hits            0                       # DTB write hits
system.cpu.itb.stage2_mmu.stage2_tlb.write_misses            0                       # DTB write misses
system.cpu.itb.walker.walkRequestOrigin_Requested::Data            0                       # Table walker requests started/completed, data/inst
system.cpu.itb.walker.walkRequestOrigin_Requested::Inst            0                       # Table walker requests started/completed, data/inst
system.cpu.itb.walker.walkRequestOrigin_Requested::total            0                       # Table walker requests started/completed, data/inst
system.cpu.itb.walker.walkRequestOrigin_Completed::Data            0                       # Table walker requests started/completed, data/inst
system.cpu.itb.walker.walkRequestOrigin_Completed::Inst            0                       # Table walker requests started/completed, data/inst
system.cpu.itb.walker.walkRequestOrigin_Completed::total            0                       # Table walker requests started/completed, data/inst
system.cpu.itb.walker.walkRequestOrigin::total            0                       # Table walker requests started/completed, data/inst
system.cpu.itb.walker.walks                         0                       # Table walker walks requested
system.cpu.itb.write_accesses                       0                       # DTB write accesses
system.cpu.itb.write_hits                           0                       # DTB write hits
system.cpu.itb.write_misses                         0                       # DTB write misses
system.cpu.numCycles                        171179287                       # number of cpu cycles simulated
system.cpu.numFetchSuspends                         0                       # Number of times Execute suspended instruction fetching
system.cpu.numWorkItemsCompleted                    0                       # number of work items this cpu completed
system.cpu.numWorkItemsStarted                      0                       # number of work items this cpu started
system.cpu.op_class_0::No_OpClass                   0      0.00%      0.00% # Class of committed instruction
system.cpu.op_class_0::IntAlu                46531422     46.44%     46.44% # Class of committed instruction
system.cpu.op_class_0::IntMult                  20720      0.02%     46.46% # Class of committed instruction
system.cpu.op_class_0::IntDiv                       0      0.00%     46.46% # Class of committed instruction
system.cpu.op_class_0::FloatAdd                     0      0.00%     46.46% # Class of committed instruction
system.cpu.op_class_0::FloatCmp                     0      0.00%     46.46% # Class of committed instruction
system.cpu.op_class_0::FloatCvt                     0      0.00%     46.46% # Class of committed instruction
system.cpu.op_class_0::FloatMult                    0      0.00%     46.46% # Class of committed instruction
system.cpu.op_class_0::FloatMultAcc                 0      0.00%     46.46% # Class of committed instruction
system.cpu.op_class_0::FloatDiv                     0      0.00%     46.46% # Class of committed instruction
system.cpu.op_class_0::FloatMisc                    0      0.00%     46.46% # Class of committed instruction
system.cpu.op_class_0::FloatSqrt                    0      0.00%     46.46% # Class of committed instruction
system.cpu.op_class_0::SimdAdd                      0      0.00%     46.46% # Class of committed instruction
system.cpu.op_class_0::SimdAddAcc                   0      0.00%     46.46% # Class of committed instruction
system.cpu.op_class_0::SimdAlu                      0      0.00%     46.46% # Class of committed instruction
system.cpu.op_class_0::SimdCmp                      0      0.00%     46.46% # Class of committed instruction
system.cpu.op_class_0::SimdCvt                      0      0.00%     46.46% # Class of committed instruction
system.cpu.op_class_0::SimdMisc                     0      0.00%     46.46% # Class of committed instruction
system.cpu.op_class_0::SimdMult                     0      0.00%     46.46% # Class of committed instruction
system.cpu.op_class_0::SimdMultAcc                  0      0.00%     46.46% # Class of committed instruction
system.cpu.op_class_0::SimdShift                    0      0.00%     46.46% # Class of committed instruction
system.cpu.op_class_0::SimdShiftAcc                 0      0.00%     46.46% # Class of committed instruction
system.cpu.op_class_0::SimdDiv                      0      0.00%     46.46% # Class of committed instruction
system.cpu.op_class_0::SimdSqrt                     0      0.00%     46.46% # Class of committed instruction
system.cpu.op_class_0::SimdFloatAdd                 0      0.00%     46.46% # Class of committed instruction
system.cpu.op_class_0::SimdFloatAlu                 0      0.00%     46.46% # Class of committed instruction
system.cpu.op_class_0::SimdFloatCmp                 0      0.00%     46.46% # Class of committed instruction
system.cpu.op_class_0::SimdFloatCvt                 0      0.00%     46.46% # Class of committed instruction
system.cpu.op_class_0::SimdFloatDiv                 0      0.00%     46.46% # Class of committed instruction
system.cpu.op_class_0::SimdFloatMisc               18      0.00%     46.46% # Class of committed instruction
system.cpu.op_class_0::SimdFloatMult                0      0.00%     46.46% # Class of committed instruction
system.cpu.op_class_0::SimdFloatMultAcc             0      0.00%     46.46% # Class of committed instruction
system.cpu.op_class_0::SimdFloatSqrt                0      0.00%     46.46% # Class of committed instruction
system.cpu.op_class_0::SimdReduceAdd                0      0.00%     46.46% # Class of committed instruction
system.cpu.op_class_0::SimdReduceAlu                0      0.00%     46.46% # Class of committed instruction
system.cpu.op_class_0::SimdReduceCmp                0      0.00%     46.46% # Class of committed instruction
system.cpu.op_class_0::SimdFloatReduceAdd            0      0.00%     46.46% # Class of committed instruction
system.cpu.op_class_0::SimdFloatReduceCmp            0      0.00%     46.46% # Class of committed instruction
system.cpu.op_class_0::SimdAes                      0      0.00%     46.46% # Class of committed instruction
system.cpu.op_class_0::SimdAesMix                   0      0.00%     46.46% # Class of committed instruction
system.cpu.op_class_0::SimdSha1Hash                 0      0.00%     46.46% # Class of committed instruction
system.cpu.op_class_0::SimdSha1Hash2                0      0.00%     46.46% # Class of committed instruction
system.cpu.op_class_0::SimdSha256Hash               0      0.00%     46.46% # Class of committed instruction
system.cpu.op_class_0::SimdSha256Hash2              0      0.00%     46.46% # Class of committed instruction
system.cpu.op_class_0::SimdShaSigma2                0      0.00%     46.46% # Class of committed instruction
system.cpu.op_class_0::SimdShaSigma3                0      0.00%     46.46% # Class of committed instruction
system.cpu.op_class_0::SimdPredAlu                  0      0.00%     46.46% # Class of committed instruction
system.cpu.op_class_0::MemRead               42693587     42.61%     89.07% # Class of committed instruction
system.cpu.op_class_0::MemWrite              10950618     10.93%    100.00% # Class of committed instruction
system.cpu.op_class_0::FloatMemRead                 0      0.00%    100.00% # Class of committed instruction
system.cpu.op_class_0::FloatMemWrite                0      0.00%    100.00% # Class of committed instruction
system.cpu.op_class_0::IprAccess                    0      0.00%    100.00% # Class of committed instruction
system.cpu.op_class_0::InstPrefetch                 0      0.00%    100.00% # Class of committed instruction
system.cpu.op_class_0::total                100196365                       # Class of committed instruction
system.cpu.tickCycles                       132935843                       # Number of cycles that the object actually ticked
system.cpu.workload.numSyscalls                    84                       # Number of system calls
system.membus.snoop_filter.hit_multi_requests            0                       # Number of requests hitting in the snoop filter with multiple (>1) holders of the requested data.
system.membus.snoop_filter.hit_multi_snoops            0                       # Number of snoops hitting in the snoop filter with multiple (>1) holders of the requested data.
system.membus.snoop_filter.hit_single_requests       167892                       # Number of requests hitting in the snoop filter with a single holder of the requested data.
system.membus.snoop_filter.hit_single_snoops            0                       # Number of snoops hitting in the snoop filter with a single holder of the requested data.
system.membus.snoop_filter.tot_requests        368885                       # Total number of requests made to the snoop filter.
system.membus.snoop_filter.tot_snoops               0                       # Total number of snoops made to the snoop filter.
system.tol2bus.snoop_filter.hit_multi_requests          674                       # Number of requests hitting in the snoop filter with multiple (>1) holders of the requested data.
system.tol2bus.snoop_filter.hit_multi_snoops            0                       # Number of snoops hitting in the snoop filter with multiple (>1) holders of the requested data.
system.tol2bus.snoop_filter.hit_single_requests       867988                       # Number of requests hitting in the snoop filter with a single holder of the requested data.
system.tol2bus.snoop_filter.hit_single_snoops          466                       # Number of snoops hitting in the snoop filter with a single holder of the requested data.
system.tol2bus.snoop_filter.tot_requests      1737444                       # Total number of requests made to the snoop filter.
system.tol2bus.snoop_filter.tot_snoops            466                       # Total number of snoops made to the snoop filter.
system.membus.pwrStateResidencyTicks::UNDEFINED  85589643500                       # Cumulative time (in ticks) in various power states
system.membus.trans_dist::ReadResp              64884                       # Transaction distribution
system.membus.trans_dist::WritebackDirty       111091                       # Transaction distribution
system.membus.trans_dist::CleanEvict            56794                       # Transaction distribution
system.membus.trans_dist::ReadExReq            136116                       # Transaction distribution
system.membus.trans_dist::ReadExResp           136115                       # Transaction distribution
system.membus.trans_dist::ReadSharedReq         64884                       # Transaction distribution
system.membus.pkt_count_system.l2.mem_side::system.mem_ctrls.port       569884                       # Packet count per connected master and slave (bytes)
system.membus.pkt_count::total                 569884                       # Packet count per connected master and slave (bytes)
system.membus.pkt_size_system.l2.mem_side::system.mem_ctrls.port     19973760                       # Cumulative packet size per connected master and slave (bytes)
system.membus.pkt_size::total                19973760                       # Cumulative packet size per connected master and slave (bytes)
system.membus.snoops                                0                       # Total snoops (count)
system.membus.snoopTraffic                          0                       # Total snoop traffic (bytes)
system.membus.snoop_fanout::samples            201000                       # Request fanout histogram
system.membus.snoop_fanout::mean                    0                       # Request fanout histogram
system.membus.snoop_fanout::stdev                   0                       # Request fanout histogram
system.membus.snoop_fanout::underflows              0      0.00%      0.00% # Request fanout histogram
system.membus.snoop_fanout::0                  201000    100.00%    100.00% # Request fanout histogram
system.membus.snoop_fanout::1                       0      0.00%    100.00% # Request fanout histogram
system.membus.snoop_fanout::overflows               0      0.00%    100.00% # Request fanout histogram
system.membus.snoop_fanout::min_value               0                       # Request fanout histogram
system.membus.snoop_fanout::max_value               0                       # Request fanout histogram
system.membus.snoop_fanout::total              201000                       # Request fanout histogram
system.membus.respLayer1.occupancy         1082725250                       # Layer occupancy (ticks)
system.membus.respLayer1.utilization              1.3                       # Layer utilization (%)
system.membus.reqLayer0.occupancy           854843000                       # Layer occupancy (ticks)
system.membus.reqLayer0.utilization               1.0                       # Layer utilization (%)
system.tol2bus.pwrStateResidencyTicks::UNDEFINED  85589643500                       # Cumulative time (in ticks) in various power states
system.tol2bus.trans_dist::ReadResp            547766                       # Transaction distribution
system.tol2bus.trans_dist::WritebackDirty       898464                       # Transaction distribution
system.tol2bus.trans_dist::WritebackClean          302                       # Transaction distribution
system.tol2bus.trans_dist::CleanEvict          137572                       # Transaction distribution
system.tol2bus.trans_dist::ReadExReq           321691                       # Transaction distribution
system.tol2bus.trans_dist::ReadExResp          321690                       # Transaction distribution
system.tol2bus.trans_dist::ReadCleanReq           747                       # Transaction distribution
system.tol2bus.trans_dist::ReadSharedReq       547019                       # Transaction distribution
system.tol2bus.pkt_count_system.cpu.icache.mem_side::system.l2.cpu_side         1796                       # Packet count per connected master and slave (bytes)
system.tol2bus.pkt_count_system.cpu.dcache.mem_side::system.l2.cpu_side      2605104                       # Packet count per connected master and slave (bytes)
system.tol2bus.pkt_count::total               2606900                       # Packet count per connected master and slave (bytes)
system.tol2bus.pkt_size_system.cpu.icache.mem_side::system.l2.cpu_side        67136                       # Cumulative packet size per connected master and slave (bytes)
system.tol2bus.pkt_size_system.cpu.dcache.mem_side::system.l2.cpu_side    105989248                       # Cumulative packet size per connected master and slave (bytes)
system.tol2bus.pkt_size::total              106056384                       # Cumulative packet size per connected master and slave (bytes)
system.tol2bus.snoops                          168351                       # Total snoops (count)
system.tol2bus.snoopTraffic                   7109824                       # Total snoop traffic (bytes)
system.tol2bus.snoop_fanout::samples          1037808                       # Request fanout histogram
system.tol2bus.snoop_fanout::mean            0.001099                       # Request fanout histogram
system.tol2bus.snoop_fanout::stdev           0.033139                       # Request fanout histogram
system.tol2bus.snoop_fanout::underflows             0      0.00%      0.00% # Request fanout histogram
system.tol2bus.snoop_fanout::0                1036667     99.89%     99.89% # Request fanout histogram
system.tol2bus.snoop_fanout::1                   1141      0.11%    100.00% # Request fanout histogram
system.tol2bus.snoop_fanout::2                      0      0.00%    100.00% # Request fanout histogram
system.tol2bus.snoop_fanout::overflows              0      0.00%    100.00% # Request fanout histogram
system.tol2bus.snoop_fanout::min_value              0                       # Request fanout histogram
system.tol2bus.snoop_fanout::max_value              1                       # Request fanout histogram
system.tol2bus.snoop_fanout::total            1037808                       # Request fanout histogram
system.tol2bus.reqLayer0.occupancy         1656397000                       # Layer occupancy (ticks)
system.tol2bus.reqLayer0.utilization              1.9                       # Layer utilization (%)
system.tol2bus.respLayer1.occupancy        1303065496                       # Layer occupancy (ticks)
system.tol2bus.respLayer1.utilization             1.5                       # Layer utilization (%)
system.tol2bus.respLayer0.occupancy           1120500                       # Layer occupancy (ticks)
system.tol2bus.respLayer0.utilization             0.0                       # Layer utilization (%)
system.voltage_domain.voltage                       1                       # Voltage in Volts
system.clk_domain.clock                          1000                       # Clock period in ticks
system.l2.pwrStateResidencyTicks::UNDEFINED  85589643500                       # Cumulative time (in ticks) in various power states
system.l2.demand_hits::.cpu.inst                   79                       # number of demand (read+write) hits
system.l2.demand_hits::.cpu.data               668374                       # number of demand (read+write) hits
system.l2.demand_hits::total                   668453                       # number of demand (read+write) hits
system.l2.overall_hits::.cpu.inst                  79                       # number of overall hits
system.l2.overall_hits::.cpu.data              668374                       # number of overall hits
system.l2.overall_hits::total                  668453                       # number of overall hits
system.l2.demand_misses::.cpu.inst                668                       # number of demand (read+write) misses
system.l2.demand_misses::.cpu.data             200336                       # number of demand (read+write) misses
system.l2.demand_misses::total                 201004                       # number of demand (read+write) misses
system.l2.overall_misses::.cpu.inst               668                       # number of overall misses
system.l2.overall_misses::.cpu.data            200336                       # number of overall misses
system.l2.overall_misses::total                201004                       # number of overall misses
system.l2.demand_miss_latency::.cpu.inst     52507500                       # number of demand (read+write) miss cycles
system.l2.demand_miss_latency::.cpu.data  16918165000                       # number of demand (read+write) miss cycles
system.l2.demand_miss_latency::total      16970672500                       # number of demand (read+write) miss cycles
system.l2.overall_miss_latency::.cpu.inst     52507500                       # number of overall miss cycles
system.l2.overall_miss_latency::.cpu.data  16918165000                       # number of overall miss cycles
system.l2.overall_miss_latency::total     16970672500                       # number of overall miss cycles
system.l2.demand_accesses::.cpu.inst              747                       # number of demand (read+write) accesses
system.l2.demand_accesses::.cpu.data           868710                       # number of demand (read+write) accesses
system.l2.demand_accesses::total               869457                       # number of demand (read+write) accesses
system.l2.overall_accesses::.cpu.inst             747                       # number of overall (read+write) accesses
system.l2.overall_accesses::.cpu.data          868710                       # number of overall (read+write) accesses
system.l2.overall_accesses::total              869457                       # number of overall (read+write) accesses
system.l2.demand_miss_rate::.cpu.inst        0.894244                       # miss rate for demand accesses
system.l2.demand_miss_rate::.cpu.data        0.230613                       # miss rate for demand accesses
system.l2.demand_miss_rate::total            0.231183                       # miss rate for demand accesses
system.l2.overall_miss_rate::.cpu.inst       0.894244                       # miss rate for overall accesses
system.l2.overall_miss_rate::.cpu.data       0.230613                       # miss rate for overall accesses
system.l2.overall_miss_rate::total           0.231183                       # miss rate for overall accesses
system.l2.demand_avg_miss_latency::.cpu.inst 78604.041916                       # average overall miss latency
system.l2.demand_avg_miss_latency::.cpu.data 84448.950763                       # average overall miss latency
system.l2.demand_avg_miss_latency::total 84429.526278                       # average overall miss latency
system.l2.overall_avg_miss_latency::.cpu.inst 78604.041916                       # average overall miss latency
system.l2.overall_avg_miss_latency::.cpu.data 84448.950763                       # average overall miss latency
system.l2.overall_avg_miss_latency::total 84429.526278                       # average overall miss latency
system.l2.blocked_cycles::no_mshrs                  0                       # number of cycles access was blocked
system.l2.blocked_cycles::no_targets                0                       # number of cycles access was blocked
system.l2.blocked::no_mshrs                         0                       # number of cycles access was blocked
system.l2.blocked::no_targets                       0                       # number of cycles access was blocked
system.l2.avg_blocked_cycles::no_mshrs            nan                       # average number of cycles each access was blocked
system.l2.avg_blocked_cycles::no_targets          nan                       # average number of cycles each access was blocked
system.l2.writebacks::.writebacks              111091                       # number of writebacks
system.l2.writebacks::total                    111091                       # number of writebacks
system.l2.demand_mshr_hits::.cpu.data               4                       # number of demand (read+write) MSHR hits
system.l2.demand_mshr_hits::total                   4                       # number of demand (read+write) MSHR hits
system.l2.overall_mshr_hits::.cpu.data              4                       # number of overall MSHR hits
system.l2.overall_mshr_hits::total                  4                       # number of overall MSHR hits
system.l2.demand_mshr_misses::.cpu.inst           668                       # number of demand (read+write) MSHR misses
system.l2.demand_mshr_misses::.cpu.data        200332                       # number of demand (read+write) MSHR misses
system.l2.demand_mshr_misses::total            201000                       # number of demand (read+write) MSHR misses
system.l2.overall_mshr_misses::.cpu.inst          668                       # number of overall MSHR misses
system.l2.overall_mshr_misses::.cpu.data       200332                       # number of overall MSHR misses
system.l2.overall_mshr_misses::total           201000                       # number of overall MSHR misses
system.l2.demand_mshr_miss_latency::.cpu.inst     45827500                       # number of demand (read+write) MSHR miss cycles
system.l2.demand_mshr_miss_latency::.cpu.data  14914611000                       # number of demand (read+write) MSHR miss cycles
system.l2.demand_mshr_miss_latency::total  14960438500                       # number of demand (read+write) MSHR miss cycles
system.l2.overall_mshr_miss_latency::.cpu.inst     45827500                       # number of overall MSHR miss cycles
system.l2.overall_mshr_miss_latency::.cpu.data  14914611000                       # number of overall MSHR miss cycles
system.l2.overall_mshr_miss_latency::total  14960438500                       # number of overall MSHR miss cycles
system.l2.demand_mshr_miss_rate::.cpu.inst     0.894244                       # mshr miss rate for demand accesses
system.l2.demand_mshr_miss_rate::.cpu.data     0.230609                       # mshr miss rate for demand accesses
system.l2.demand_mshr_miss_rate::total       0.231179                       # mshr miss rate for demand accesses
system.l2.overall_mshr_miss_rate::.cpu.inst     0.894244                       # mshr miss rate for overall accesses
system.l2.overall_mshr_miss_rate::.cpu.data     0.230609                       # mshr miss rate for overall accesses
system.l2.overall_mshr_miss_rate::total      0.231179                       # mshr miss rate for overall accesses
system.l2.demand_avg_mshr_miss_latency::.cpu.inst 68604.041916                       # average overall mshr miss latency
system.l2.demand_avg_mshr_miss_latency::.cpu.data 74449.468882                       # average overall mshr miss latency
system.l2.demand_avg_mshr_miss_latency::total 74430.042289                       # average overall mshr miss latency
system.l2.overall_avg_mshr_miss_latency::.cpu.inst 68604.041916                       # average overall mshr miss latency
system.l2.overall_avg_mshr_miss_latency::.cpu.data 74449.468882                       # average overall mshr miss latency
system.l2.overall_avg_mshr_miss_latency::total 74430.042289                       # average overall mshr miss latency
system.l2.replacements                         168351                       # number of replacements
system.l2.WritebackDirty_hits::.writebacks       787373                       # number of WritebackDirty hits
system.l2.WritebackDirty_hits::total           787373                       # number of WritebackDirty hits
system.l2.WritebackDirty_accesses::.writebacks       787373                       # number of WritebackDirty accesses(hits+misses)
system.l2.WritebackDirty_accesses::total       787373                       # number of WritebackDirty accesses(hits+misses)
system.l2.WritebackClean_hits::.writebacks          293                       # number of WritebackClean hits
system.l2.WritebackClean_hits::total              293                       # number of WritebackClean hits
system.l2.WritebackClean_accesses::.writebacks          293                       # number of WritebackClean accesses(hits+misses)
system.l2.WritebackClean_accesses::total          293                       # number of WritebackClean accesses(hits+misses)
system.l2.ReadExReq_hits::.cpu.data            185575                       # number of ReadExReq hits
system.l2.ReadExReq_hits::total                185575                       # number of ReadExReq hits
system.l2.ReadExReq_misses::.cpu.data          136116                       # number of ReadExReq misses
system.l2.ReadExReq_misses::total              136116                       # number of ReadExReq misses
system.l2.ReadExReq_miss_latency::.cpu.data  11794479000                       # number of ReadExReq miss cycles
system.l2.ReadExReq_miss_latency::total   11794479000                       # number of ReadExReq miss cycles
system.l2.ReadExReq_accesses::.cpu.data        321691                       # number of ReadExReq accesses(hits+misses)
system.l2.ReadExReq_accesses::total            321691                       # number of ReadExReq accesses(hits+misses)
system.l2.ReadExReq_miss_rate::.cpu.data     0.423127                       # miss rate for ReadExReq accesses
system.l2.ReadExReq_miss_rate::total         0.423127                       # miss rate for ReadExReq accesses
system.l2.ReadExReq_avg_miss_latency::.cpu.data 86650.202768                       # average ReadExReq miss latency
system.l2.ReadExReq_avg_miss_latency::total 86650.202768                       # average ReadExReq miss latency
system.l2.ReadExReq_mshr_misses::.cpu.data       136116                       # number of ReadExReq MSHR misses
system.l2.ReadExReq_mshr_misses::total         136116                       # number of ReadExReq MSHR misses
system.l2.ReadExReq_mshr_miss_latency::.cpu.data  10433329000                       # number of ReadExReq MSHR miss cycles
system.l2.ReadExReq_mshr_miss_latency::total  10433329000                       # number of ReadExReq MSHR miss cycles
system.l2.ReadExReq_mshr_miss_rate::.cpu.data     0.423127                       # mshr miss rate for ReadExReq accesses
system.l2.ReadExReq_mshr_miss_rate::total     0.423127                       # mshr miss rate for ReadExReq accesses
system.l2.ReadExReq_avg_mshr_miss_latency::.cpu.data 76650.276235                       # average ReadExReq mshr miss latency
system.l2.ReadExReq_avg_mshr_miss_latency::total 76650.276235                       # average ReadExReq mshr miss latency
system.l2.ReadCleanReq_hits::.cpu.inst             79                       # number of ReadCleanReq hits
system.l2.ReadCleanReq_hits::total                 79                       # number of ReadCleanReq hits
system.l2.ReadCleanReq_misses::.cpu.inst          668                       # number of ReadCleanReq misses
system.l2.ReadCleanReq_misses::total              668                       # number of ReadCleanReq misses
system.l2.ReadCleanReq_miss_latency::.cpu.inst     52507500                       # number of ReadCleanReq miss cycles
system.l2.ReadCleanReq_miss_latency::total     52507500                       # number of ReadCleanReq miss cycles
system.l2.ReadCleanReq_accesses::.cpu.inst          747                       # number of ReadCleanReq accesses(hits+misses)
system.l2.ReadCleanReq_accesses::total            747                       # number of ReadCleanReq accesses(hits+misses)
system.l2.ReadCleanReq_miss_rate::.cpu.inst     0.894244                       # miss rate for ReadCleanReq accesses
system.l2.ReadCleanReq_miss_rate::total      0.894244                       # miss rate for ReadCleanReq accesses
system.l2.ReadCleanReq_avg_miss_latency::.cpu.inst 78604.041916                       # average ReadCleanReq miss latency
system.l2.ReadCleanReq_avg_miss_latency::total 78604.041916                       # average ReadCleanReq miss latency
system.l2.ReadCleanReq_mshr_misses::.cpu.inst          668                       # number of ReadCleanReq MSHR misses
system.l2.ReadCleanReq_mshr_misses::total          668                       # number of ReadCleanReq MSHR misses
system.l2.ReadCleanReq_mshr_miss_latency::.cpu.inst     45827500                       # number of ReadCleanReq MSHR miss cycles
system.l2.ReadCleanReq_mshr_miss_latency::total     45827500                       # number of ReadCleanReq MSHR miss cycles
system.l2.ReadCleanReq_mshr_miss_rate::.cpu.inst     0.894244                       # mshr miss rate for ReadCleanReq accesses
system.l2.ReadCleanReq_mshr_miss_rate::total     0.894244                       # mshr miss rate for ReadCleanReq accesses
system.l2.ReadCleanReq_avg_mshr_miss_latency::.cpu.inst 68604.041916                       # average ReadCleanReq mshr miss latency
system.l2.ReadCleanReq_avg_mshr_miss_latency::total 68604.041916                       # average ReadCleanReq mshr miss latency
system.l2.ReadSharedReq_hits::.cpu.data        482799                       # number of ReadSharedReq hits
system.l2.ReadSharedReq_hits::total            482799                       # number of ReadSharedReq hits
system.l2.ReadSharedReq_misses::.cpu.data        64220                       # number of ReadSharedReq misses
system.l2.ReadSharedReq_misses::total           64220                       # number of ReadSharedReq misses
system.l2.ReadSharedReq_miss_latency::.cpu.data   5123686000                       # number of ReadSharedReq miss cycles
system.l2.ReadSharedReq_miss_latency::total   5123686000                       # number of ReadSharedReq miss cycles
system.l2.ReadSharedReq_accesses::.cpu.data       547019                       # number of ReadSharedReq accesses(hits+misses)
system.l2.ReadSharedReq_accesses::total        547019                       # number of ReadSharedReq accesses(hits+misses)
system.l2.ReadSharedReq_miss_rate::.cpu.data     0.117400                       # miss rate for ReadSharedReq accesses
system.l2.ReadSharedReq_miss_rate::total     0.117400                       # miss rate for ReadSharedReq accesses
system.l2.ReadSharedReq_avg_miss_latency::.cpu.data 79783.338524                       # average ReadSharedReq miss latency
system.l2.ReadSharedReq_avg_miss_latency::total 79783.338524                       # average ReadSharedReq miss latency
system.l2.ReadSharedReq_mshr_hits::.cpu.data            4                       # number of ReadSharedReq MSHR hits
system.l2.ReadSharedReq_mshr_hits::total            4                       # number of ReadSharedReq MSHR hits
system.l2.ReadSharedReq_mshr_misses::.cpu.data        64216                       # number of ReadSharedReq MSHR misses
system.l2.ReadSharedReq_mshr_misses::total        64216                       # number of ReadSharedReq MSHR misses
system.l2.ReadSharedReq_mshr_miss_latency::.cpu.data   4481282000                       # number of ReadSharedReq MSHR miss cycles
system.l2.ReadSharedReq_mshr_miss_latency::total   4481282000                       # number of ReadSharedReq MSHR miss cycles
system.l2.ReadSharedReq_mshr_miss_rate::.cpu.data     0.117393                       # mshr miss rate for ReadSharedReq accesses
system.l2.ReadSharedReq_mshr_miss_rate::total     0.117393                       # mshr miss rate for ReadSharedReq accesses
system.l2.ReadSharedReq_avg_mshr_miss_latency::.cpu.data 69784.508534                       # average ReadSharedReq mshr miss latency
system.l2.ReadSharedReq_avg_mshr_miss_latency::total 69784.508534                       # average ReadSharedReq mshr miss latency
system.l2.tags.pwrStateResidencyTicks::UNDEFINED  85589643500                       # Cumulative time (in ticks) in various power states
system.l2.tags.tagsinuse                 31920.460273                       # Cycle average of tags in use
system.l2.tags.total_refs                     1736765                       # Total number of references to valid blocks.
system.l2.tags.sampled_refs                    201119                       # Sample count of references to valid blocks.
system.l2.tags.avg_refs                      8.635509                       # Average number of references to valid blocks.
system.l2.tags.warmup_cycle                     77000                       # Cycle when the warmup percentage was hit.
system.l2.tags.occ_blocks::.writebacks      40.598330                       # Average occupied blocks per requestor
system.l2.tags.occ_blocks::.cpu.inst        83.009997                       # Average occupied blocks per requestor
system.l2.tags.occ_blocks::.cpu.data     31796.851946                       # Average occupied blocks per requestor
system.l2.tags.occ_percent::.writebacks      0.001239                       # Average percentage of cache occupancy
system.l2.tags.occ_percent::.cpu.inst        0.002533                       # Average percentage of cache occupancy
system.l2.tags.occ_percent::.cpu.data        0.970363                       # Average percentage of cache occupancy
system.l2.tags.occ_percent::total            0.974135                       # Average percentage of cache occupancy
system.l2.tags.occ_task_id_blocks::1024         32768                       # Occupied blocks per task id
system.l2.tags.age_task_id_blocks_1024::0           86                       # Occupied blocks per task id
system.l2.tags.age_task_id_blocks_1024::1          108                       # Occupied blocks per task id
system.l2.tags.age_task_id_blocks_1024::2         1188                       # Occupied blocks per task id
system.l2.tags.age_task_id_blocks_1024::3        15478                       # Occupied blocks per task id
system.l2.tags.age_task_id_blocks_1024::4        15908                       # Occupied blocks per task id
system.l2.tags.occ_task_id_percent::1024            1                       # Percentage of cache occupancy per task id
system.l2.tags.tag_accesses                  14095279                       # Number of tag accesses
system.l2.tags.data_accesses                 14095279                       # Number of data accesses
system.cpu_voltage_domain.voltage                   1                       # Voltage in Volts
system.mem_ctrls.pwrStateResidencyTicks::UNDEFINED  85589643500                       # Cumulative time (in ticks) in various power states
system.mem_ctrls.bytes_read::.cpu.inst          42752                       # Number of bytes read from this memory
system.mem_ctrls.bytes_read::.cpu.data       12821184                       # Number of bytes read from this memory
system.mem_ctrls.bytes_read::total           12863936                       # Number of bytes read from this memory
system.mem_ctrls.bytes_inst_read::.cpu.inst        42752                       # Number of instructions bytes read from this memory
system.mem_ctrls.bytes_inst_read::total         42752                       # Number of instructions bytes read from this memory
system.mem_ctrls.bytes_written::.writebacks      7109824                       # Number of bytes written to this memory
system.mem_ctrls.bytes_written::total         7109824                       # Number of bytes written to this memory
system.mem_ctrls.num_reads::.cpu.inst             668                       # Number of read requests responded to by this memory
system.mem_ctrls.num_reads::.cpu.data          200331                       # Number of read requests responded to by this memory
system.mem_ctrls.num_reads::total              200999                       # Number of read requests responded to by this memory
system.mem_ctrls.num_writes::.writebacks       111091                       # Number of write requests responded to by this memory
system.mem_ctrls.num_writes::total             111091                       # Number of write requests responded to by this memory
system.mem_ctrls.bw_read::.cpu.inst            499500                       # Total read bandwidth from this memory (bytes/s)
system.mem_ctrls.bw_read::.cpu.data         149798311                       # Total read bandwidth from this memory (bytes/s)
system.mem_ctrls.bw_read::total             150297810                       # Total read bandwidth from this memory (bytes/s)
system.mem_ctrls.bw_inst_read::.cpu.inst       499500                       # Instruction read bandwidth from this memory (bytes/s)
system.mem_ctrls.bw_inst_read::total           499500                       # Instruction read bandwidth from this memory (bytes/s)
system.mem_ctrls.bw_write::.writebacks       83068742                       # Write bandwidth from this memory (bytes/s)
system.mem_ctrls.bw_write::total             83068742                       # Write bandwidth from this memory (bytes/s)
system.mem_ctrls.bw_total::.writebacks       83068742                       # Total bandwidth to/from this memory (bytes/s)
system.mem_ctrls.bw_total::.cpu.inst           499500                       # Total bandwidth to/from this memory (bytes/s)
system.mem_ctrls.bw_total::.cpu.data        149798311                       # Total bandwidth to/from this memory (bytes/s)
system.mem_ctrls.bw_total::total            233366552                       # Total bandwidth to/from this memory (bytes/s)
system.mem_ctrls.avgPriority_.writebacks::samples    111091.00                       # Average QoS priority value for accepted requests
system.mem_ctrls.avgPriority_.cpu.inst::samples       668.00                       # Average QoS priority value for accepted requests
system.mem_ctrls.avgPriority_.cpu.data::samples    200299.00                       # Average QoS priority value for accepted requests
system.mem_ctrls.priorityMinLatency      0.000000018750                       # per QoS priority minimum request to response latency (s)
system.mem_ctrls.priorityMaxLatency      0.003162672500                       # per QoS priority maximum request to response latency (s)
system.mem_ctrls.numReadWriteTurnArounds         6645                       # Number of turnarounds from READ to WRITE
system.mem_ctrls.numWriteReadTurnArounds         6646                       # Number of turnarounds from WRITE to READ
system.mem_ctrls.numStayReadState              524985                       # Number of times bus staying in READ state
system.mem_ctrls.numStayWriteState             104559                       # Number of times bus staying in WRITE state
system.mem_ctrls.readReqs                      201000                       # Number of read requests accepted
system.mem_ctrls.writeReqs                     111091                       # Number of write requests accepted
system.mem_ctrls.readBursts                    201000                       # Number of DRAM read bursts, including those serviced by the write queue
system.mem_ctrls.writeBursts                   111091                       # Number of DRAM write bursts, including those merged in the write queue
system.mem_ctrls.servicedByWrQ                     33                       # Number of DRAM read bursts serviced by the write queue
system.mem_ctrls.mergedWrBursts                     0                       # Number of DRAM write bursts merged with an existing one
system.mem_ctrls.neitherReadNorWriteReqs            0                       # Number of requests that are neither read nor write
system.mem_ctrls.perBankRdBursts::0             12845                       # Per bank write bursts
system.mem_ctrls.perBankRdBursts::1             12745                       # Per bank write bursts
system.mem_ctrls.perBankRdBursts::2             12822                       # Per bank write bursts
system.mem_ctrls.perBankRdBursts::3             12540                       # Per bank write bursts
system.mem_ctrls.perBankRdBursts::4             12512                       # Per bank write bursts
system.mem_ctrls.perBankRdBursts::5             12343                       # Per bank write bursts
system.mem_ctrls.perBankRdBursts::6             12294                       # Per bank write bursts
system.mem_ctrls.perBankRdBursts::7             12467                       # Per bank write bursts
system.mem_ctrls.perBankRdBursts::8             12452                       # Per bank write bursts
system.mem_ctrls.perBankRdBursts::9             12398                       # Per bank write bursts
system.mem_ctrls.perBankRdBursts::10            12451                       # Per bank write bursts
system.mem_ctrls.perBankRdBursts::11            12468                       # Per bank write bursts
system.mem_ctrls.perBankRdBursts::12            12637                       # Per bank write bursts
system.mem_ctrls.perBankRdBursts::13            12712                       # Per bank write bursts
system.mem_ctrls.perBankRdBursts::14            12665                       # Per bank write bursts
system.mem_ctrls.perBankRdBursts::15            12615                       # Per bank write bursts
system.mem_ctrls.perBankWrBursts::0              7137                       # Per bank write bursts
system.mem_ctrls.perBankWrBursts::1              7136                       # Per bank write bursts
system.mem_ctrls.perBankWrBursts::2              7163                       # Per bank write bursts
system.mem_ctrls.perBankWrBursts::3              6979                       # Per bank write bursts
system.mem_ctrls.perBankWrBursts::4              6977                       # Per bank write bursts
system.mem_ctrls.perBankWrBursts::5              6933                       # Per bank write bursts
system.mem_ctrls.perBankWrBursts::6              6825                       # Per bank write bursts
system.mem_ctrls.perBankWrBursts::7              6802                       # Per bank write bursts
system.mem_ctrls.perBankWrBursts::8              6794                       # Per bank write bursts
system.mem_ctrls.perBankWrBursts::9              6773                       # Per bank write bursts
system.mem_ctrls.perBankWrBursts::10             6863                       # Per bank write bursts
system.mem_ctrls.perBankWrBursts::11             6811                       # Per bank write bursts
system.mem_ctrls.perBankWrBursts::12             6901                       # Per bank write bursts
system.mem_ctrls.perBankWrBursts::13             6997                       # Per bank write bursts
system.mem_ctrls.perBankWrBursts::14             7010                       # Per bank write bursts
system.mem_ctrls.perBankWrBursts::15             6968                       # Per bank write bursts
system.mem_ctrls.avgRdQLen                       1.08                       # Average read queue length when enqueuing
system.mem_ctrls.avgWrQLen                      24.67                       # Average write queue length when enqueuing
system.mem_ctrls.totQLat                   2899483750                       # Total ticks spent queuing
system.mem_ctrls.totBusLat                 1004830000                       # Total ticks spent in databus transfers
system.mem_ctrls.totMemAccLat              6667596250                       # Total ticks spent from burst creation until serviced by the DRAM
system.mem_ctrls.avgQLat                     14427.66                       # Average queueing delay per DRAM burst
system.mem_ctrls.avgBusLat                    4999.98                       # Average bus latency per DRAM burst
system.mem_ctrls.avgMemAccLat                33177.57                       # Average memory access latency per DRAM burst
system.mem_ctrls.numRdRetry                         0                       # Number of times read queue was full causing retry
system.mem_ctrls.numWrRetry                         0                       # Number of times write queue was full causing retry
system.mem_ctrls.readRowHits                   137773                       # Number of row buffer hits during reads
system.mem_ctrls.writeRowHits                   69661                       # Number of row buffer hits during writes
system.mem_ctrls.readRowHitRate                 68.56                       # Row buffer hit rate for reads
system.mem_ctrls.writeRowHitRate                62.71                       # Row buffer hit rate for writes
system.mem_ctrls.readPktSize::0                     0                       # Read request sizes (log2)
system.mem_ctrls.readPktSize::1                     0                       # Read request sizes (log2)
system.mem_ctrls.readPktSize::2                     0                       # Read request sizes (log2)
system.mem_ctrls.readPktSize::3                     0                       # Read request sizes (log2)
system.mem_ctrls.readPktSize::4                     0                       # Read request sizes (log2)
system.mem_ctrls.readPktSize::5                     0                       # Read request sizes (log2)
system.mem_ctrls.readPktSize::6                201000                       # Read request sizes (log2)
system.mem_ctrls.writePktSize::0                    0                       # Write request sizes (log2)
system.mem_ctrls.writePktSize::1                    0                       # Write request sizes (log2)
system.mem_ctrls.writePktSize::2                    0                       # Write request sizes (log2)
system.mem_ctrls.writePktSize::3                    0                       # Write request sizes (log2)
system.mem_ctrls.writePktSize::4                    0                       # Write request sizes (log2)
system.mem_ctrls.writePktSize::5                    0                       # Write request sizes (log2)
system.mem_ctrls.writePktSize::6               111091                       # Write request sizes (log2)
system.mem_ctrls.rdQLenPdf::0                  140172                       # What read queue length does an incoming req see
system.mem_ctrls.rdQLenPdf::1                   58405                       # What read queue length does an incoming req see
system.mem_ctrls.rdQLenPdf::2                    2100                       # What read queue length does an incoming req see
system.mem_ctrls.rdQLenPdf::3                     289                       # What read queue length does an incoming req see
system.mem_ctrls.rdQLenPdf::4                       1                       # What read queue length does an incoming req see
system.mem_ctrls.rdQLenPdf::5                       0                       # What read queue length does an incoming req see
system.mem_ctrls.rdQLenPdf::6                       0                       # What read queue length does an incoming req see
system.mem_ctrls.rdQLenPdf::7                       0                       # What read queue length does an incoming req see
system.mem_ctrls.rdQLenPdf::8                       0                       # What read queue length does an incoming req see
system.mem_ctrls.rdQLenPdf::9                       0                       # What read queue length does an incoming req see
system.mem_ctrls.rdQLenPdf::10                      0                       # What read queue length does an incoming req see
system.mem_ctrls.rdQLenPdf::11                      0                       # What read queue length does an incoming req see
system.mem_ctrls.rdQLenPdf::12                      0                       # What read queue length does an incoming req see
system.mem_ctrls.rdQLenPdf::13                      0                       # What read queue length does an incoming req see
system.mem_ctrls.rdQLenPdf::14                      0                       # What read queue length does an incoming req see
system.mem_ctrls.rdQLenPdf::15                      0                       # What read queue length does an incoming req see
system.mem_ctrls.rdQLenPdf::16                      0                       # What read queue length does an incoming req see
system.mem_ctrls.rdQLenPdf::17                      0                       # What read queue length does an incoming req see
system.mem_ctrls.rdQLenPdf::18                      0                       # What read queue length does an incoming req see
system.mem_ctrls.rdQLenPdf::19                      0                       # What read queue length does an incoming req see
system.mem_ctrls.rdQLenPdf::20                      0                       # What read queue length does an incoming req see
system.mem_ctrls.rdQLenPdf::21                      0                       # What read queue length does an incoming req see
system.mem_ctrls.rdQLenPdf::22                      0                       # What read queue length does an incoming req see
system.mem_ctrls.rdQLenPdf::23                      0                       # What read queue length does an incoming req see
system.mem_ctrls.rdQLenPdf::24                      0                       # What read queue length does an incoming req see
system.mem_ctrls.rdQLenPdf::25                      0                       # What read queue length does an incoming req see
system.mem_ctrls.rdQLenPdf::26                      0                       # What read queue length does an incoming req see
system.mem_ctrls.rdQLenPdf::27                      0                       # What read queue length does an incoming req see
system.mem_ctrls.rdQLenPdf::28                      0                       # What read queue length does an incoming req see
system.mem_ctrls.rdQLenPdf::29                      0                       # What read queue length does an incoming req see
system.mem_ctrls.rdQLenPdf::30                      0                       # What read queue length does an incoming req see
system.mem_ctrls.rdQLenPdf::31                      0                       # What read queue length does an incoming req see
system.mem_ctrls.wrQLenPdf::0                       1                       # What write queue length does an incoming req see
system.mem_ctrls.wrQLenPdf::1                       1                       # What write queue length does an incoming req see
system.mem_ctrls.wrQLenPdf::2                       1                       # What write queue length does an incoming req see
system.mem_ctrls.wrQLenPdf::3                       1                       # What write queue length does an incoming req see
system.mem_ctrls.wrQLenPdf::4                       1                       # What write queue length does an incoming req see
system.mem_ctrls.wrQLenPdf::5                       1                       # What write queue length does an incoming req see
system.mem_ctrls.wrQLenPdf::6                       1                       # What write queue length does an incoming req see
system.mem_ctrls.wrQLenPdf::7                       1                       # What write queue length does an incoming req see
system.mem_ctrls.wrQLenPdf::8                       1                       # What write queue length does an incoming req see
system.mem_ctrls.wrQLenPdf::9                       1                       # What write queue length does an incoming req see
system.mem_ctrls.wrQLenPdf::10                      1                       # What write queue length does an incoming req see
system.mem_ctrls.wrQLenPdf::11                      1                       # What write queue length does an incoming req see
system.mem_ctrls.wrQLenPdf::12                      1                       # What write queue length does an incoming req see
system.mem_ctrls.wrQLenPdf::13                      1                       # What write queue length does an incoming req see
system.mem_ctrls.wrQLenPdf::14                      1                       # What write queue length does an incoming req see
system.mem_ctrls.wrQLenPdf::15                   2237                       # What write queue length does an incoming req see
system.mem_ctrls.wrQLenPdf::16                   2278                       # What write queue length does an incoming req see
system.mem_ctrls.wrQLenPdf::17                   5892                       # What write queue length does an incoming req see
system.mem_ctrls.wrQLenPdf::18                   6682                       # What write queue length does an incoming req see
system.mem_ctrls.wrQLenPdf::19                   6706                       # What write queue length does an incoming req see
system.mem_ctrls.wrQLenPdf::20                   6758                       # What write queue length does an incoming req see
system.mem_ctrls.wrQLenPdf::21                   6707                       # What write queue length does an incoming req see
system.mem_ctrls.wrQLenPdf::22                   6707                       # What write queue length does an incoming req see
system.mem_ctrls.wrQLenPdf::23                   6719                       # What write queue length does an incoming req see
system.mem_ctrls.wrQLenPdf::24                   6756                       # What write queue length does an incoming req see
system.mem_ctrls.wrQLenPdf::25                   6773                       # What write queue length does an incoming req see
system.mem_ctrls.wrQLenPdf::26                   6788                       # What write queue length does an incoming req see
system.mem_ctrls.wrQLenPdf::27                   6678                       # What write queue length does an incoming req see
system.mem_ctrls.wrQLenPdf::28                   6717                       # What write queue length does an incoming req see
system.mem_ctrls.wrQLenPdf::29                   6702                       # What write queue length does an incoming req see
system.mem_ctrls.wrQLenPdf::30                   6662                       # What write queue length does an incoming req see
system.mem_ctrls.wrQLenPdf::31                   6661                       # What write queue length does an incoming req see
system.mem_ctrls.wrQLenPdf::32                   6646                       # What write queue length does an incoming req see
system.mem_ctrls.wrQLenPdf::33                      7                       # What write queue length does an incoming req see
system.mem_ctrls.wrQLenPdf::34                      0                       # What write queue length does an incoming req see
system.mem_ctrls.wrQLenPdf::35                      0                       # What write queue length does an incoming req see
system.mem_ctrls.wrQLenPdf::36                      0                       # What write queue length does an incoming req see
system.mem_ctrls.wrQLenPdf::37                      0                       # What write queue length does an incoming req see
system.mem_ctrls.wrQLenPdf::38                      0                       # What write queue length does an incoming req see
system.mem_ctrls.wrQLenPdf::39                      0                       # What write queue length does an incoming req see
system.mem_ctrls.wrQLenPdf::40                      0                       # What write queue length does an incoming req see
system.mem_ctrls.wrQLenPdf::41                      0                       # What write queue length does an incoming req see
system.mem_ctrls.wrQLenPdf::42                      0                       # What write queue length does an incoming req see
system.mem_ctrls.wrQLenPdf::43                      0                       # What write queue length does an incoming req see
system.mem_ctrls.wrQLenPdf::44                      0                       # What write queue length does an incoming req see
system.mem_ctrls.wrQLenPdf::45                      0                       # What write queue length does an incoming req see
system.mem_ctrls.wrQLenPdf::46                      0                       # What write queue length does an incoming req see
system.mem_ctrls.wrQLenPdf::47                      0                       # What write queue length does an incoming req see
system.mem_ctrls.wrQLenPdf::48                      0                       # What write queue length does an incoming req see
system.mem_ctrls.wrQLenPdf::49                      0                       # What write queue length does an incoming req see
system.mem_ctrls.wrQLenPdf::50                      0                       # What write queue length does an incoming req see
system.mem_ctrls.wrQLenPdf::51                      0                       # What write queue length does an incoming req see
system.mem_ctrls.wrQLenPdf::52                      0                       # What write queue length does an incoming req see
system.mem_ctrls.wrQLenPdf::53                      0                       # What write queue length does an incoming req see
system.mem_ctrls.wrQLenPdf::54                      0                       # What write queue length does an incoming req see
system.mem_ctrls.wrQLenPdf::55                      0                       # What write queue length does an incoming req see
system.mem_ctrls.wrQLenPdf::56                      0                       # What write queue length does an incoming req see
system.mem_ctrls.wrQLenPdf::57                      0                       # What write queue length does an incoming req see
system.mem_ctrls.wrQLenPdf::58                      0                       # What write queue length does an incoming req see
system.mem_ctrls.wrQLenPdf::59                      0                       # What write queue length does an incoming req see
system.mem_ctrls.wrQLenPdf::60                      0                       # What write queue length does an incoming req see
system.mem_ctrls.wrQLenPdf::61                      0                       # What write queue length does an incoming req see
system.mem_ctrls.wrQLenPdf::62                      0                       # What write queue length does an incoming req see
system.mem_ctrls.wrQLenPdf::63                      0                       # What write queue length does an incoming req see
system.mem_ctrls.bytesPerActivate::samples       104593                       # Bytes accessed per row activation
system.mem_ctrls.bytesPerActivate::mean    190.927959                       # Bytes accessed per row activation
system.mem_ctrls.bytesPerActivate::gmean   111.429919                       # Bytes accessed per row activation
system.mem_ctrls.bytesPerActivate::stdev   255.288030                       # Bytes accessed per row activation
system.mem_ctrls.bytesPerActivate::0-127        69379     66.33%     66.33% # Bytes accessed per row activation
system.mem_ctrls.bytesPerActivate::128-255        13925     13.31%     79.65% # Bytes accessed per row activation
system.mem_ctrls.bytesPerActivate::256-383         2509      2.40%     82.04% # Bytes accessed per row activation
system.mem_ctrls.bytesPerActivate::384-511         1492      1.43%     83.47% # Bytes accessed per row activation
system.mem_ctrls.bytesPerActivate::512-639        10128      9.68%     93.15% # Bytes accessed per row activation
system.mem_ctrls.bytesPerActivate::640-767          645      0.62%     93.77% # Bytes accessed per row activation
system.mem_ctrls.bytesPerActivate::768-895          517      0.49%     94.27% # Bytes accessed per row activation
system.mem_ctrls.bytesPerActivate::896-1023          396      0.38%     94.64% # Bytes accessed per row activation
system.mem_ctrls.bytesPerActivate::1024-1151         5602      5.36%    100.00% # Bytes accessed per row activation
system.mem_ctrls.bytesPerActivate::total       104593                       # Bytes accessed per row activation
system.mem_ctrls.rdPerTurnAround::samples         6646                       # Reads before turning the bus around for writes
system.mem_ctrls.rdPerTurnAround::mean      30.238640                       # Reads before turning the bus around for writes
system.mem_ctrls.rdPerTurnAround::gmean     23.767152                       # Reads before turning the bus around for writes
system.mem_ctrls.rdPerTurnAround::stdev     52.395718                       # Reads before turning the bus around for writes
system.mem_ctrls.rdPerTurnAround::0-127          6480     97.50%     97.50% # Reads before turning the bus around for writes
system.mem_ctrls.rdPerTurnAround::128-255           36      0.54%     98.04% # Reads before turning the bus around for writes
system.mem_ctrls.rdPerTurnAround::256-383          127      1.91%     99.95% # Reads before turning the bus around for writes
system.mem_ctrls.rdPerTurnAround::640-767            1      0.02%     99.97% # Reads before turning the bus around for writes
system.mem_ctrls.rdPerTurnAround::1664-1791            1      0.02%     99.98% # Reads before turning the bus around for writes
system.mem_ctrls.rdPerTurnAround::2432-2559            1      0.02%    100.00% # Reads before turning the bus around for writes
system.mem_ctrls.rdPerTurnAround::total          6646                       # Reads before turning the bus around for writes
system.mem_ctrls.wrPerTurnAround::samples         6645                       # Writes before turning the bus around for reads
system.mem_ctrls.wrPerTurnAround::mean      16.712867                       # Writes before turning the bus around for reads
[...]
system.cpu.icache.ReadReq_avg_miss_latency::.cpu.inst 73930.388220                       # average ReadReq miss latency
system.cpu.icache.ReadReq_avg_miss_latency::total 73930.388220                       # average ReadReq miss latency
system.cpu.icache.ReadReq_mshr_misses::.cpu.inst          747                       # number of ReadReq MSHR misses
system.cpu.icache.ReadReq_mshr_misses::total          747                       # number of ReadReq MSHR misses
system.cpu.icache.ReadReq_mshr_miss_latency::.cpu.inst     54479000                       # number of ReadReq MSHR miss cycles
system.cpu.icache.ReadReq_mshr_miss_latency::total     54479000                       # number of ReadReq MSHR miss cycles
system.cpu.icache.ReadReq_mshr_miss_rate::.cpu.inst     0.000077                       # mshr miss rate for ReadReq accesses
system.cpu.icache.ReadReq_mshr_miss_rate::total     0.000077                       # mshr miss rate for ReadReq accesses
system.cpu.icache.ReadReq_avg_mshr_miss_latency::.cpu.inst 72930.388220                       # average ReadReq mshr miss latency
system.cpu.icache.ReadReq_avg_mshr_miss_latency::total 72930.388220                       # average ReadReq mshr miss latency
system.cpu.icache.tags.pwrStateResidencyTicks::UNDEFINED  85589643500                       # Cumulative time (in ticks) in various power states
system.cpu.icache.tags.tagsinuse           361.141157                       # Cycle average of tags in use
system.cpu.icache.tags.total_refs             9663601                       # Total number of references to valid blocks.
system.cpu.icache.tags.sampled_refs               747                       # Sample count of references to valid blocks.
system.cpu.icache.tags.avg_refs          12936.547523                       # Average number of references to valid blocks.
system.cpu.icache.tags.warmup_cycle             87500                       # Cycle when the warmup percentage was hit.
system.cpu.icache.tags.occ_blocks::.cpu.inst   361.141157                       # Average occupied blocks per requestor
system.cpu.icache.tags.occ_percent::.cpu.inst     0.705354                       # Average percentage of cache occupancy
system.cpu.icache.tags.occ_percent::total     0.705354                       # Average percentage of cache occupancy
system.cpu.icache.tags.occ_task_id_blocks::1024          445                       # Occupied blocks per task id
system.cpu.icache.tags.age_task_id_blocks_1024::3          106                       # Occupied blocks per task id
system.cpu.icache.tags.age_task_id_blocks_1024::4          339                       # Occupied blocks per task id
system.cpu.icache.tags.occ_task_id_percent::1024     0.869141                       # Percentage of cache occupancy per task id
system.cpu.icache.tags.tag_accesses          19327949                       # Number of tag accesses
system.cpu.icache.tags.data_accesses         19327949                       # Number of data accesses
system.cpu.dtb.walker.pwrStateResidencyTicks::UNDEFINED  85589643500                       # Cumulative time (in ticks) in various power states
system.cpu.dtb.stage2_mmu.stage2_tlb.walker.pwrStateResidencyTicks::UNDEFINED  85589643500                       # Cumulative time (in ticks) in various power states
system.cpu.dcache.pwrStateResidencyTicks::UNDEFINED  85589643500                       # Cumulative time (in ticks) in various power states
system.cpu.dcache.demand_hits::.cpu.data     51146395                       # number of demand (read+write) hits
system.cpu.dcache.demand_hits::total         51146395                       # number of demand (read+write) hits
system.cpu.dcache.overall_hits::.cpu.data     51146864                       # number of overall hits
system.cpu.dcache.overall_hits::total        51146864                       # number of overall hits
system.cpu.dcache.demand_misses::.cpu.data       922702                       # number of demand (read+write) misses
system.cpu.dcache.demand_misses::total         922702                       # number of demand (read+write) misses
system.cpu.dcache.overall_misses::.cpu.data       930650                       # number of overall misses
system.cpu.dcache.overall_misses::total        930650                       # number of overall misses
system.cpu.dcache.demand_miss_latency::.cpu.data  27174661498                       # number of demand (read+write) miss cycles
system.cpu.dcache.demand_miss_latency::total  27174661498                       # number of demand (read+write) miss cycles
system.cpu.dcache.overall_miss_latency::.cpu.data  27174661498                       # number of overall miss cycles
system.cpu.dcache.overall_miss_latency::total  27174661498                       # number of overall miss cycles
system.cpu.dcache.demand_accesses::.cpu.data     52069097                       # number of demand (read+write) accesses
system.cpu.dcache.demand_accesses::total     52069097                       # number of demand (read+write) accesses
system.cpu.dcache.overall_accesses::.cpu.data     52077514                       # number of overall (read+write) accesses
system.cpu.dcache.overall_accesses::total     52077514                       # number of overall (read+write) accesses
system.cpu.dcache.demand_miss_rate::.cpu.data     0.017721                       # miss rate for demand accesses
system.cpu.dcache.demand_miss_rate::total     0.017721                       # miss rate for demand accesses
system.cpu.dcache.overall_miss_rate::.cpu.data     0.017870                       # miss rate for overall accesses
system.cpu.dcache.overall_miss_rate::total     0.017870                       # miss rate for overall accesses
system.cpu.dcache.demand_avg_miss_latency::.cpu.data 29451.178710                       # average overall miss latency
system.cpu.dcache.demand_avg_miss_latency::total 29451.178710                       # average overall miss latency
system.cpu.dcache.overall_avg_miss_latency::.cpu.data 29199.657764                       # average overall miss latency
system.cpu.dcache.overall_avg_miss_latency::total 29199.657764                       # average overall miss latency
system.cpu.dcache.blocked_cycles::no_mshrs       207132                       # number of cycles access was blocked
system.cpu.dcache.blocked_cycles::no_targets            0                       # number of cycles access was blocked
system.cpu.dcache.blocked::no_mshrs              3775                       # number of cycles access was blocked
system.cpu.dcache.blocked::no_targets               0                       # number of cycles access was blocked
system.cpu.dcache.avg_blocked_cycles::no_mshrs    54.869404                       # average number of cycles each access was blocked
system.cpu.dcache.avg_blocked_cycles::no_targets          nan                       # average number of cycles each access was blocked
system.cpu.dcache.writebacks::.writebacks       787373                       # number of writebacks
system.cpu.dcache.writebacks::total            787373                       # number of writebacks
system.cpu.dcache.demand_mshr_hits::.cpu.data        61935                       # number of demand (read+write) MSHR hits
system.cpu.dcache.demand_mshr_hits::total        61935                       # number of demand (read+write) MSHR hits
system.cpu.dcache.overall_mshr_hits::.cpu.data        61935                       # number of overall MSHR hits
system.cpu.dcache.overall_mshr_hits::total        61935                       # number of overall MSHR hits
system.cpu.dcache.demand_mshr_misses::.cpu.data       860767                       # number of demand (read+write) MSHR misses
system.cpu.dcache.demand_mshr_misses::total       860767                       # number of demand (read+write) MSHR misses
system.cpu.dcache.overall_mshr_misses::.cpu.data       868710                       # number of overall MSHR misses
system.cpu.dcache.overall_mshr_misses::total       868710                       # number of overall MSHR misses
system.cpu.dcache.demand_mshr_miss_latency::.cpu.data  24699697500                       # number of demand (read+write) MSHR miss cycles
system.cpu.dcache.demand_mshr_miss_latency::total  24699697500                       # number of demand (read+write) MSHR miss cycles
system.cpu.dcache.overall_mshr_miss_latency::.cpu.data  25372047499                       # number of overall MSHR miss cycles
system.cpu.dcache.overall_mshr_miss_latency::total  25372047499                       # number of overall MSHR miss cycles
system.cpu.dcache.demand_mshr_miss_rate::.cpu.data     0.016531                       # mshr miss rate for demand accesses
system.cpu.dcache.demand_mshr_miss_rate::total     0.016531                       # mshr miss rate for demand accesses
system.cpu.dcache.overall_mshr_miss_rate::.cpu.data     0.016681                       # mshr miss rate for overall accesses
system.cpu.dcache.overall_mshr_miss_rate::total     0.016681                       # mshr miss rate for overall accesses
system.cpu.dcache.demand_avg_mshr_miss_latency::.cpu.data 28694.986564                       # average overall mshr miss latency
system.cpu.dcache.demand_avg_mshr_miss_latency::total 28694.986564                       # average overall mshr miss latency
system.cpu.dcache.overall_avg_mshr_miss_latency::.cpu.data 29206.579295                       # average overall mshr miss latency
system.cpu.dcache.overall_avg_mshr_miss_latency::total 29206.579295                       # average overall mshr miss latency
system.cpu.dcache.replacements                 867685                       # number of replacements
system.cpu.dcache.ReadReq_hits::.cpu.data     40577656                       # number of ReadReq hits
system.cpu.dcache.ReadReq_hits::total        40577656                       # number of ReadReq hits
system.cpu.dcache.ReadReq_misses::.cpu.data       541346                       # number of ReadReq misses
system.cpu.dcache.ReadReq_misses::total        541346                       # number of ReadReq misses
system.cpu.dcache.ReadReq_miss_latency::.cpu.data  11022365500                       # number of ReadReq miss cycles
system.cpu.dcache.ReadReq_miss_latency::total  11022365500                       # number of ReadReq miss cycles
system.cpu.dcache.ReadReq_accesses::.cpu.data     41119002                       # number of ReadReq accesses(hits+misses)
system.cpu.dcache.ReadReq_accesses::total     41119002                       # number of ReadReq accesses(hits+misses)
system.cpu.dcache.ReadReq_miss_rate::.cpu.data     0.013165                       # miss rate for ReadReq accesses
system.cpu.dcache.ReadReq_miss_rate::total     0.013165                       # miss rate for ReadReq accesses
system.cpu.dcache.ReadReq_avg_miss_latency::.cpu.data 20361.036195                       # average ReadReq miss latency
system.cpu.dcache.ReadReq_avg_miss_latency::total 20361.036195                       # average ReadReq miss latency
system.cpu.dcache.ReadReq_mshr_hits::.cpu.data         2207                       # number of ReadReq MSHR hits
system.cpu.dcache.ReadReq_mshr_hits::total         2207                       # number of ReadReq MSHR hits
system.cpu.dcache.ReadReq_mshr_misses::.cpu.data       539139                       # number of ReadReq MSHR misses
system.cpu.dcache.ReadReq_mshr_misses::total       539139                       # number of ReadReq MSHR misses
system.cpu.dcache.ReadReq_mshr_miss_latency::.cpu.data  10422851500                       # number of ReadReq MSHR miss cycles
system.cpu.dcache.ReadReq_mshr_miss_latency::total  10422851500                       # number of ReadReq MSHR miss cycles
system.cpu.dcache.ReadReq_mshr_miss_rate::.cpu.data     0.013112                       # mshr miss rate for ReadReq accesses
system.cpu.dcache.ReadReq_mshr_miss_rate::total     0.013112                       # mshr miss rate for ReadReq accesses
system.cpu.dcache.ReadReq_avg_mshr_miss_latency::.cpu.data 19332.401292                       # average ReadReq mshr miss latency
system.cpu.dcache.ReadReq_avg_mshr_miss_latency::total 19332.401292                       # average ReadReq mshr miss latency
system.cpu.dcache.WriteReq_hits::.cpu.data     10568739                       # number of WriteReq hits
system.cpu.dcache.WriteReq_hits::total       10568739                       # number of WriteReq hits
system.cpu.dcache.WriteReq_misses::.cpu.data       381356                       # number of WriteReq misses
system.cpu.dcache.WriteReq_misses::total       381356                       # number of WriteReq misses
system.cpu.dcache.WriteReq_miss_latency::.cpu.data  16152295998                       # number of WriteReq miss cycles
system.cpu.dcache.WriteReq_miss_latency::total  16152295998                       # number of WriteReq miss cycles
system.cpu.dcache.WriteReq_accesses::.cpu.data     10950095                       # number of WriteReq accesses(hits+misses)
system.cpu.dcache.WriteReq_accesses::total     10950095                       # number of WriteReq accesses(hits+misses)
system.cpu.dcache.WriteReq_miss_rate::.cpu.data     0.034827                       # miss rate for WriteReq accesses
system.cpu.dcache.WriteReq_miss_rate::total     0.034827                       # miss rate for WriteReq accesses
system.cpu.dcache.WriteReq_avg_miss_latency::.cpu.data 42354.901976                       # average WriteReq miss latency
system.cpu.dcache.WriteReq_avg_miss_latency::total 42354.901976                       # average WriteReq miss latency
system.cpu.dcache.WriteReq_mshr_hits::.cpu.data        59728                       # number of WriteReq MSHR hits
system.cpu.dcache.WriteReq_mshr_hits::total        59728                       # number of WriteReq MSHR hits
system.cpu.dcache.WriteReq_mshr_misses::.cpu.data       321628                       # number of WriteReq MSHR misses
system.cpu.dcache.WriteReq_mshr_misses::total       321628                       # number of WriteReq MSHR misses
system.cpu.dcache.WriteReq_mshr_miss_latency::.cpu.data  14276846000                       # number of WriteReq MSHR miss cycles
system.cpu.dcache.WriteReq_mshr_miss_latency::total  14276846000                       # number of WriteReq MSHR miss cycles
system.cpu.dcache.WriteReq_mshr_miss_rate::.cpu.data     0.029372                       # mshr miss rate for WriteReq accesses
system.cpu.dcache.WriteReq_mshr_miss_rate::total     0.029372                       # mshr miss rate for WriteReq accesses
system.cpu.dcache.WriteReq_avg_mshr_miss_latency::.cpu.data 44389.313120                       # average WriteReq mshr miss latency
system.cpu.dcache.WriteReq_avg_mshr_miss_latency::total 44389.313120                       # average WriteReq mshr miss latency
system.cpu.dcache.SoftPFReq_hits::.cpu.data          469                       # number of SoftPFReq hits
system.cpu.dcache.SoftPFReq_hits::total           469                       # number of SoftPFReq hits
system.cpu.dcache.SoftPFReq_misses::.cpu.data         7948                       # number of SoftPFReq misses
system.cpu.dcache.SoftPFReq_misses::total         7948                       # number of SoftPFReq misses
system.cpu.dcache.SoftPFReq_accesses::.cpu.data         8417                       # number of SoftPFReq accesses(hits+misses)
system.cpu.dcache.SoftPFReq_accesses::total         8417                       # number of SoftPFReq accesses(hits+misses)
system.cpu.dcache.SoftPFReq_miss_rate::.cpu.data     0.944279                       # miss rate for SoftPFReq accesses
system.cpu.dcache.SoftPFReq_miss_rate::total     0.944279                       # miss rate for SoftPFReq accesses
system.cpu.dcache.SoftPFReq_mshr_misses::.cpu.data         7943                       # number of SoftPFReq MSHR misses
system.cpu.dcache.SoftPFReq_mshr_misses::total         7943                       # number of SoftPFReq MSHR misses
system.cpu.dcache.SoftPFReq_mshr_miss_latency::.cpu.data    672349999                       # number of SoftPFReq MSHR miss cycles
system.cpu.dcache.SoftPFReq_mshr_miss_latency::total    672349999                       # number of SoftPFReq MSHR miss cycles
system.cpu.dcache.SoftPFReq_mshr_miss_rate::.cpu.data     0.943685                       # mshr miss rate for SoftPFReq accesses
system.cpu.dcache.SoftPFReq_mshr_miss_rate::total     0.943685                       # mshr miss rate for SoftPFReq accesses
system.cpu.dcache.SoftPFReq_avg_mshr_miss_latency::.cpu.data 84646.858744                       # average SoftPFReq mshr miss latency
system.cpu.dcache.SoftPFReq_avg_mshr_miss_latency::total 84646.858744                       # average SoftPFReq mshr miss latency
system.cpu.dcache.LoadLockedReq_hits::.cpu.data           38                       # number of LoadLockedReq hits
system.cpu.dcache.LoadLockedReq_hits::total           38                       # number of LoadLockedReq hits
system.cpu.dcache.LoadLockedReq_accesses::.cpu.data           38                       # number of LoadLockedReq accesses(hits+misses)
system.cpu.dcache.LoadLockedReq_accesses::total           38                       # number of LoadLockedReq accesses(hits+misses)
system.cpu.dcache.StoreCondReq_hits::.cpu.data           38                       # number of StoreCondReq hits
system.cpu.dcache.StoreCondReq_hits::total           38                       # number of StoreCondReq hits
system.cpu.dcache.StoreCondReq_accesses::.cpu.data           38                       # number of StoreCondReq accesses(hits+misses)
system.cpu.dcache.StoreCondReq_accesses::total           38                       # number of StoreCondReq accesses(hits+misses)
system.cpu.dcache.tags.pwrStateResidencyTicks::UNDEFINED  85589643500                       # Cumulative time (in ticks) in various power states
system.cpu.dcache.tags.tagsinuse          1008.291318                       # Cycle average of tags in use
system.cpu.dcache.tags.total_refs            52015649                       # Total number of references to valid blocks.
system.cpu.dcache.tags.sampled_refs            868709                       # Sample count of references to valid blocks.
system.cpu.dcache.tags.avg_refs             59.876954                       # Average number of references to valid blocks.
system.cpu.dcache.tags.warmup_cycle            176500                       # Cycle when the warmup percentage was hit.
system.cpu.dcache.tags.occ_blocks::.cpu.data  1008.291318                       # Average occupied blocks per requestor
system.cpu.dcache.tags.occ_percent::.cpu.data     0.984659                       # Average percentage of cache occupancy
system.cpu.dcache.tags.occ_percent::total     0.984659                       # Average percentage of cache occupancy
system.cpu.dcache.tags.occ_task_id_blocks::1024         1024                       # Occupied blocks per task id
system.cpu.dcache.tags.age_task_id_blocks_1024::0          215                       # Occupied blocks per task id
system.cpu.dcache.tags.age_task_id_blocks_1024::1          373                       # Occupied blocks per task id
system.cpu.dcache.tags.age_task_id_blocks_1024::2          436                       # Occupied blocks per task id
system.cpu.dcache.tags.occ_task_id_percent::1024            1                       # Percentage of cache occupancy per task id
system.cpu.dcache.tags.tag_accesses          52946299                       # Number of tag accesses
system.cpu.dcache.tags.data_accesses         52946299                       # Number of data accesses
system.cpu.itb.walker.pwrStateResidencyTicks::UNDEFINED  85589643500                       # Cumulative time (in ticks) in various power states
system.cpu.itb.stage2_mmu.stage2_tlb.walker.pwrStateResidencyTicks::UNDEFINED  85589643500                       # Cumulative time (in ticks) in various power states

---------- End Simulation Statistics   ----------
