
---------- Begin Simulation Statistics ----------
final_tick                               174655605500                       # Number of ticks from beginning of simulation (restored from checkpoints and never reset)
host_inst_rate                                 185865                       # Simulator instruction rate (inst/s)
host_mem_usage                                 695716                       # Number of bytes of host memory used
host_op_rate                                   185873                       # Simulator op (including micro ops) rate (op/s)
host_seconds                                   538.02                       # Real time elapsed on the host
host_tick_rate                              324623882                       # Simulator tick rate (ticks/s)
sim_freq                                 1000000000000                       # Frequency of simulated ticks
sim_insts                                   100000000                       # Number of instructions simulated
sim_ops                                     100003986                       # Number of ops (including micro ops) simulated
sim_seconds                                  0.174656                       # Number of seconds simulated
sim_ticks                                174655605500                       # Number of ticks simulated
system.cpu.branchPred.BTBCorrect                    0                       # Number of correct BTB predictions (this stat may not work properly.
system.cpu.branchPred.BTBHitPct             99.522235                       # BTB Hit Percentage
system.cpu.branchPred.BTBHits                  597011                       # Number of BTB hits
system.cpu.branchPred.BTBLookups               599877                       # Number of BTB lookups
system.cpu.branchPred.RASInCorrect                  7                       # Number of incorrect RAS predictions.
system.cpu.branchPred.condIncorrect               894                       # Number of conditional branches incorrect
system.cpu.branchPred.condPredicted            600097                       # Number of conditional branches predicted
system.cpu.branchPred.indirectHits                179                       # Number of indirect target hits.
system.cpu.branchPred.indirectLookups             391                       # Number of indirect predictor lookups.
system.cpu.branchPred.indirectMisses              212                       # Number of indirect misses.
system.cpu.branchPred.lookups                  602322                       # Number of BP lookups
system.cpu.branchPred.usedRAS                     661                       # Number of times the RAS was used to get a target.
system.cpu.branchPredindirectMispredicted          131                       # Number of mispredicted indirect branches.
system.cpu.committedInsts                   100000000                       # Number of instructions committed
system.cpu.committedOps                     100003986                       # Number of ops (including micro ops) committed
system.cpu.cpi                               3.493112                       # CPI: cycles per instruction
system.cpu.discardedOps                          2728                       # Number of ops (including micro ops) which were discarded before commit
system.cpu.dtb.accesses                             0                       # DTB accesses
system.cpu.dtb.align_faults                         0                       # Number of TLB faults due to alignment restrictions
system.cpu.dtb.domain_faults                        0                       # Number of TLB faults due to domain restrictions
system.cpu.dtb.flush_entries                        0                       # Number of entries that have been flushed from TLB
system.cpu.dtb.flush_tlb                            0                       # Number of times complete TLB was flushed
system.cpu.dtb.flush_tlb_asid                       0                       # Number of times TLB was flushed by ASID
system.cpu.dtb.flush_tlb_mva                        0                       # Number of times TLB was flushed by MVA
system.cpu.dtb.flush_tlb_mva_asid                   0                       # Number of times TLB was flushed by MVA & ASID
system.cpu.dtb.hits                                 0                       # DTB hits
system.cpu.dtb.inst_accesses                        0                       # ITB inst accesses
system.cpu.dtb.inst_hits                            0                       # ITB inst hits
system.cpu.dtb.inst_misses                          0                       # ITB inst misses
system.cpu.dtb.misses                               0                       # DTB misses
system.cpu.dtb.perms_faults                         0                       # Number of TLB faults due to permissions restrictions
system.cpu.dtb.prefetch_faults                      0                       # Number of TLB faults due to prefetch
system.cpu.dtb.read_accesses                        0                       # DTB read accesses
system.cpu.dtb.read_hits                            0                       # DTB read hits
system.cpu.dtb.read_misses                          0                       # DTB read misses
system.cpu.dtb.stage2_mmu.stage2_tlb.accesses            0                       # DTB accesses
system.cpu.dtb.stage2_mmu.stage2_tlb.align_faults            0                       # Number of TLB faults due to alignment restrictions
system.cpu.dtb.stage2_mmu.stage2_tlb.domain_faults            0                       # Number of TLB faults due to domain restrictions
system.cpu.dtb.stage2_mmu.stage2_tlb.flush_entries            0                       # Number of entries that have been flushed from TLB
system.cpu.dtb.stage2_mmu.stage2_tlb.flush_tlb            0                       # Number of times complete TLB was flushed
system.cpu.dtb.stage2_mmu.stage2_tlb.flush_tlb_asid            0                       # Number of times TLB was flushed by ASID
system.cpu.dtb.stage2_mmu.stage2_tlb.flush_tlb_mva            0                       # Number of times TLB was flushed by MVA
system.cpu.dtb.stage2_mmu.stage2_tlb.flush_tlb_mva_asid            0                       # Number of times TLB was flushed by MVA & ASID
system.cpu.dtb.stage2_mmu.stage2_tlb.hits            0                       # DTB hits
system.cpu.dtb.stage2_mmu.stage2_tlb.inst_accesses            0                       # ITB inst accesses
system.cpu.dtb.stage2_mmu.stage2_tlb.inst_hits            0                       # ITB inst hits
system.cpu.dtb.stage2_mmu.stage2_tlb.inst_misses            0                       # ITB inst misses
system.cpu.dtb.stage2_mmu.stage2_tlb.misses            0                       # DTB misses
system.cpu.dtb.stage2_mmu.stage2_tlb.perms_faults            0                       # Number of TLB faults due to permissions restrictions
system.cpu.dtb.stage2_mmu.stage2_tlb.prefetch_faults            0                       # Number of TLB faults due to prefetch
system.cpu.dtb.stage2_mmu.stage2_tlb.read_accesses            0                       # DTB read accesses
system.cpu.dtb.stage2_mmu.stage2_tlb.read_hits            0                       # DTB read hits
system.cpu.dtb.stage2_mmu.stage2_tlb.read_misses            0                       # DTB read misses
system.cpu.dtb.stage2_mmu.stage2_tlb.walker.walkRequestOrigin_Requested::Data            0                       # Table walker requests started/completed, data/inst
system.cpu.dtb.stage2_mmu.stage2_tlb.walker.walkRequestOrigin_Requested::Inst            0                       # Table walker requests started/completed, data/inst
system.cpu.dtb.stage2_mmu.stage2_tlb.walker.walkRequestOrigin_Requested::total            0                       # Table walker requests started/completed, data/inst
system.cpu.dtb.stage2_mmu.stage2_tlb.walker.walkRequestOrigin_Completed::Data            0                       # Table walker requests started/completed, data/inst
system.cpu.dtb.stage2_mmu.stage2_tlb.walker.walkRequestOrigin_Completed::Inst            0                       # Table walker requests started/completed, data/inst
system.cpu.dtb.stage2_mmu.stage2_tlb.walker.walkRequestOrigin_Completed::total            0                       # Table walker requests started/completed, data/inst
system.cpu.dtb.stage2_mmu.stage2_tlb.walker.walkRequestOrigin::total            0                       # Table walker requests started/completed, data/inst
system.cpu.dtb.stage2_mmu.stage2_tlb.walker.walks            0                       # Table walker walks requested
system.cpu.dtb.stage2_mmu.stage2_tlb.write_accesses            0                       # DTB write accesses
system.cpu.dtb.stage2_mmu.stage2_tlb.write_hits            0                       # DTB write hits
system.cpu.dtb.stage2_mmu.stage2_tlb.write_misses            0                       # DTB write misses
system.cpu.dtb.walker.walkRequestOrigin_Requested::Data            0                       # Table walker requests started/completed, data/inst
system.cpu.dtb.walker.walkRequestOrigin_Requested::Inst            0                       # Table walker requests started/completed, data/inst
system.cpu.dtb.walker.walkRequestOrigin_Requested::total            0                       # Table walker requests started/completed, data/inst
system.cpu.dtb.walker.walkRequestOrigin_Completed::Data            0                       # Table walker requests started/completed, data/inst
system.cpu.dtb.walker.walkRequestOrigin_Completed::Inst            0                       # Table walker requests started/completed, data/inst
system.cpu.dtb.walker.walkRequestOrigin_Completed::total            0                       # Table walker requests started/completed, data/inst
system.cpu.dtb.walker.walkRequestOrigin::total            0                       # Table walker requests started/completed, data/inst
system.cpu.dtb.walker.walks                         0                       # Table walker walks requested
system.cpu.dtb.write_accesses                       0                       # DTB write accesses
system.cpu.dtb.write_hits                           0                       # DTB write hits
system.cpu.dtb.write_misses                         0                       # DTB write misses
system.cpu.fetch2.amo_instructions                  0                       # Number of memory atomic instructions successfully decoded
system.cpu.fetch2.fp_instructions                   0                       # Number of floating point instructions successfully decoded
system.cpu.fetch2.int_instructions           49411707                       # Number of integer instructions successfully decoded
system.cpu.fetch2.load_instructions          36900739                       # Number of memory load instructions successfully decoded
system.cpu.fetch2.store_instructions         13094358                       # Number of memory store instructions successfully decoded
system.cpu.fetch2.vec_instructions                  0                       # Number of SIMD instructions successfully decoded
system.cpu.idleCycles                       232038317                       # Total number of cycles that the object has spent stopped
system.cpu.ipc                               0.286278                       # IPC: instructions per cycle
system.cpu.itb.accesses                             0                       # DTB accesses
system.cpu.itb.align_faults                         0                       # Number of TLB faults due to alignment restrictions
system.cpu.itb.domain_faults                        0                       # Number of TLB faults due to domain restrictions
system.cpu.itb.flush_entries                        0                       # Number of entries that have been flushed from TLB
system.cpu.itb.flush_tlb                            0                       # Number of times complete TLB was flushed
system.cpu.itb.flush_tlb_asid                       0                       # Number of times TLB was flushed by ASID
system.cpu.itb.flush_tlb_mva                        0                       # Number of times TLB was flushed by MVA
system.cpu.itb.flush_tlb_mva_asid                   0                       # Number of times TLB was flushed by MVA & ASID
system.cpu.itb.hits                                 0                       # DTB hits
system.cpu.itb.inst_accesses                        0                       # ITB inst accesses
system.cpu.itb.inst_hits                            0                       # ITB inst hits
system.cpu.itb.inst_misses                          0                       # ITB inst misses
system.cpu.itb.misses                               0                       # DTB misses
system.cpu.itb.perms_faults                         0                       # Number of TLB faults due to permissions restrictions
system.cpu.itb.prefetch_faults                      0                       # Number of TLB faults due to prefetch
system.cpu.itb.read_accesses                        0                       # DTB read accesses
system.cpu.itb.read_hits                            0                       # DTB read hits
system.cpu.itb.read_misses                          0                       # DTB read misses
system.cpu.itb.stage2_mmu.stage2_tlb.accesses            0                       # DTB accesses
system.cpu.itb.stage2_mmu.stage2_tlb.align_faults            0                       # Number of TLB faults due to alignment restrictions
system.cpu.itb.stage2_mmu.stage2_tlb.domain_faults            0                       # Number of TLB faults due to domain restrictions
system.cpu.itb.stage2_mmu.stage2_tlb.flush_entries            0                       # Number of entries that have been flushed from TLB
system.cpu.itb.stage2_mmu.stage2_tlb.flush_tlb            0                       # Number of times complete TLB was flushed
system.cpu.itb.stage2_mmu.stage2_tlb.flush_tlb_asid            0                       # Number of times TLB was flushed by ASID
system.cpu.itb.stage2_mmu.stage2_tlb.flush_tlb_mva            0                       # Number of times TLB was flushed by MVA
system.cpu.itb.stage2_mmu.stage2_tlb.flush_tlb_mva_asid            0                       # Number of times TLB was flushed by MVA & ASID
system.cpu.itb.stage2_mmu.stage2_tlb.hits            0                       # DTB hits
system.cpu.itb.stage2_mmu.stage2_tlb.inst_accesses            0                       # ITB inst accesses
system.cpu.itb.stage2_mmu.stage2_tlb.inst_hits            0                       # ITB inst hits
system.cpu.itb.stage2_mmu.stage2_tlb.inst_misses            0                       # ITB inst misses
system.cpu.itb.stage2_mmu.stage2_tlb.misses            0                       # DTB misses
system.cpu.itb.stage2_mmu.stage2_tlb.perms_faults            0                       # Number of TLB faults due to permissions restrictions
system.cpu.itb.stage2_mmu.stage2_tlb.prefetch_faults            0                       # Number of TLB faults due to prefetch
system.cpu.itb.stage2_mmu.stage2_tlb.read_accesses            0                       # DTB read accesses
system.cpu.itb.stage2_mmu.stage2_tlb.read_hits            0                       # DTB read hits
system.cpu.itb.stage2_mmu.stage2_tlb.read_misses            0                       # DTB read misses
system.cpu.itb.stage2_mmu.stage2_tlb.walker.walkRequestOrigin_Requested::Data            0                       # Table walker requests started/completed, data/inst
system.cpu.itb.stage2_mmu.stage2_tlb.walker.walkRequestOrigin_Requested::Inst            0                       # Table walker requests started/completed, data/inst
system.cpu.itb.stage2_mmu.stage2_tlb.walker.walkRequestOrigin_Requested::total            0                       # Table walker requests started/completed, data/inst
system.cpu.itb.stage2_mmu.stage2_tlb.walker.walkRequestOrigin_Completed::Data            0                       # Table walker requests started/completed, data/inst
system.cpu.itb.stage2_mmu.stage2_tlb.walker.walkRequestOrigin_Completed::Inst            0                       # Table walker requests started/completed, data/inst
system.cpu.itb.stage2_mmu.stage2_tlb.walker.walkRequestOrigin_Completed::total            0                       # Table walker requests started/completed, data/inst
system.cpu.itb.stage2_mmu.stage2_tlb.walker.walkRequestOrigin::total            0                       # Table walker requests started/completed, data/inst
system.cpu.itb.stage2_mmu.stage2_tlb.walker.walks            0                       # Table walker walks requested
system.cpu.itb.stage2_mmu.stage2_tlb.write_accesses            0                       # DTB write accesses
system.cpu.itb.stage2_mmu.stage2_tlb.write_hits            0                       # DTB write hits
system.cpu.itb.stage2_mmu.stage2_tlb.write_misses            0                       # DTB write misses
system.cpu.itb.walker.walkRequestOrigin_Requested::Data            0                       # Table walker requests started/completed, data/inst
system.cpu.itb.walker.walkRequestOrigin_Requested::Inst            0                       # Table walker requests started/completed, data/inst
system.cpu.itb.walker.walkRequestOrigin_Requested::total            0                       # Table walker requests started/completed, data/inst
system.cpu.itb.walker.walkRequestOrigin_Completed::Data            0                       # Table walker requests started/completed, data/inst
system.cpu.itb.walker.walkRequestOrigin_Completed::Inst            0                       # Table walker requests started/completed, data/inst
system.cpu.itb.walker.walkRequestOrigin_Completed::total            0                       # Table walker requests started/completed, data/inst
system.cpu.itb.walker.walkRequestOrigin::total            0                       # Table walker requests started/completed, data/inst
system.cpu.itb.walker.walks                         0                       # Table walker walks requested
system.cpu.itb.write_accesses                       0                       # DTB write accesses
system.cpu.itb.write_hits                           0                       # DTB write hits
system.cpu.itb.write_misses                         0                       # DTB write misses
system.cpu.numCycles                        349311211                       # number of cpu cycles simulated
system.cpu.numFetchSuspends                         0                       # Number of times Execute suspended instruction fetching
system.cpu.numWorkItemsCompleted                    0                       # number of work items this cpu completed
system.cpu.numWorkItemsStarted                      0                       # number of work items this cpu started
system.cpu.op_class_0::No_OpClass                   0      0.00%      0.00% # Class of committed instruction
system.cpu.op_class_0::IntAlu                50007407     50.01%     50.01% # Class of committed instruction
system.cpu.op_class_0::IntMult                     85      0.00%     50.01% # Class of committed instruction
system.cpu.op_class_0::IntDiv                       0      0.00%     50.01% # Class of committed instruction
system.cpu.op_class_0::FloatAdd                     0      0.00%     50.01% # Class of committed instruction
system.cpu.op_class_0::FloatCmp                     0      0.00%     50.01% # Class of committed instruction
system.cpu.op_class_0::FloatCvt                     0      0.00%     50.01% # Class of committed instruction
system.cpu.op_class_0::FloatMult                    0      0.00%     50.01% # Class of committed instruction
system.cpu.op_class_0::FloatMultAcc                 0      0.00%     50.01% # Class of committed instruction
system.cpu.op_class_0::FloatDiv                     0      0.00%     50.01% # Class of committed instruction
system.cpu.op_class_0::FloatMisc                    0      0.00%     50.01% # Class of committed instruction
system.cpu.op_class_0::FloatSqrt                    0      0.00%     50.01% # Class of committed instruction
system.cpu.op_class_0::SimdAdd                      0      0.00%     50.01% # Class of committed instruction
system.cpu.op_class_0::SimdAddAcc                   0      0.00%     50.01% # Class of committed instruction
system.cpu.op_class_0::SimdAlu                      0      0.00%     50.01% # Class of committed instruction
system.cpu.op_class_0::SimdCmp                      0      0.00%     50.01% # Class of committed instruction
system.cpu.op_class_0::SimdCvt                      0      0.00%     50.01% # Class of committed instruction
system.cpu.op_class_0::SimdMisc                     0      0.00%     50.01% # Class of committed instruction
system.cpu.op_class_0::SimdMult                     0      0.00%     50.01% # Class of committed instruction
system.cpu.op_class_0::SimdMultAcc                  0      0.00%     50.01% # Class of committed instruction
system.cpu.op_class_0::SimdShift                    0      0.00%     50.01% # Class of committed instruction
system.cpu.op_class_0::SimdShiftAcc                 0      0.00%     50.01% # Class of committed instruction
system.cpu.op_class_0::SimdDiv                      0      0.00%     50.01% # Class of committed instruction
system.cpu.op_class_0::SimdSqrt                     0      0.00%     50.01% # Class of committed instruction
system.cpu.op_class_0::SimdFloatAdd                 0      0.00%     50.01% # Class of committed instruction
system.cpu.op_class_0::SimdFloatAlu                 0      0.00%     50.01% # Class of committed instruction
system.cpu.op_class_0::SimdFloatCmp                 2      0.00%     50.01% # Class of committed instruction
system.cpu.op_class_0::SimdFloatCvt                 0      0.00%     50.01% # Class of committed instruction
system.cpu.op_class_0::SimdFloatDiv                 0      0.00%     50.01% # Class of committed instruction
system.cpu.op_class_0::SimdFloatMisc               22      0.00%     50.01% # Class of committed instruction
system.cpu.op_class_0::SimdFloatMult                0      0.00%     50.01% # Class of committed instruction
system.cpu.op_class_0::SimdFloatMultAcc             0      0.00%     50.01% # Class of committed instruction
system.cpu.op_class_0::SimdFloatSqrt                0      0.00%     50.01% # Class of committed instruction
system.cpu.op_class_0::SimdReduceAdd                0      0.00%     50.01% # Class of committed instruction
system.cpu.op_class_0::SimdReduceAlu                0      0.00%     50.01% # Class of committed instruction
system.cpu.op_class_0::SimdReduceCmp                0      0.00%     50.01% # Class of committed instruction
system.cpu.op_class_0::SimdFloatReduceAdd            0      0.00%     50.01% # Class of committed instruction
system.cpu.op_class_0::SimdFloatReduceCmp            0      0.00%     50.01% # Class of committed instruction
system.cpu.op_class_0::SimdAes                      0      0.00%     50.01% # Class of committed instruction
system.cpu.op_class_0::SimdAesMix                   0      0.00%     50.01% # Class of committed instruction
system.cpu.op_class_0::SimdSha1Hash                 0      0.00%     50.01% # Class of committed instruction
system.cpu.op_class_0::SimdSha1Hash2                0      0.00%     50.01% # Class of committed instruction
system.cpu.op_class_0::SimdSha256Hash               0      0.00%     50.01% # Class of committed instruction
system.cpu.op_class_0::SimdSha256Hash2              0      0.00%     50.01% # Class of committed instruction
system.cpu.op_class_0::SimdShaSigma2                0      0.00%     50.01% # Class of committed instruction
system.cpu.op_class_0::SimdShaSigma3                0      0.00%     50.01% # Class of committed instruction
system.cpu.op_class_0::SimdPredAlu                  0      0.00%     50.01% # Class of committed instruction
system.cpu.op_class_0::MemRead               36900735     36.90%     86.90% # Class of committed instruction
system.cpu.op_class_0::MemWrite              13095735     13.10%    100.00% # Class of committed instruction
system.cpu.op_class_0::FloatMemRead                 0      0.00%    100.00% # Class of committed instruction
system.cpu.op_class_0::FloatMemWrite                0      0.00%    100.00% # Class of committed instruction
system.cpu.op_class_0::IprAccess                    0      0.00%    100.00% # Class of committed instruction
system.cpu.op_class_0::InstPrefetch                 0      0.00%    100.00% # Class of committed instruction
system.cpu.op_class_0::total                100003986                       # Class of committed instruction
system.cpu.tickCycles                       117272894                       # Number of cycles that the object actually ticked
system.cpu.workload.numSyscalls                    38                       # Number of system calls
system.membus.snoop_filter.hit_multi_requests            0                       # Number of requests hitting in the snoop filter with multiple (>1) holders of the requested data.
system.membus.snoop_filter.hit_multi_snoops            0                       # Number of snoops hitting in the snoop filter with multiple (>1) holders of the requested data.
system.membus.snoop_filter.hit_single_requests      1455429                       # Number of requests hitting in the snoop filter with a single holder of the requested data.
system.membus.snoop_filter.hit_single_snoops            0                       # Number of snoops hitting in the snoop filter with a single holder of the requested data.
system.membus.snoop_filter.tot_requests       2943867                       # Total number of requests made to the snoop filter.
system.membus.snoop_filter.tot_snoops               0                       # Total number of snoops made to the snoop filter.
system.tol2bus.snoop_filter.hit_multi_requests           36                       # Number of requests hitting in the snoop filter with multiple (>1) holders of the requested data.
system.tol2bus.snoop_filter.hit_multi_snoops            1                       # Number of snoops hitting in the snoop filter with multiple (>1) holders of the requested data.
system.tol2bus.snoop_filter.hit_single_requests      1487381                       # Number of requests hitting in the snoop filter with a single holder of the requested data.
system.tol2bus.snoop_filter.hit_single_snoops          240                       # Number of snoops hitting in the snoop filter with a single holder of the requested data.
system.tol2bus.snoop_filter.tot_requests      2976024                       # Total number of requests made to the snoop filter.
system.tol2bus.snoop_filter.tot_snoops            241                       # Total number of snoops made to the snoop filter.
system.membus.pwrStateResidencyTicks::UNDEFINED 174655605500                       # Cumulative time (in ticks) in various power states
system.membus.trans_dist::ReadResp                602                       # Transaction distribution
system.membus.trans_dist::WritebackDirty      1455085                       # Transaction distribution
system.membus.trans_dist::CleanEvict              344                       # Transaction distribution
system.membus.trans_dist::ReadExReq           1487836                       # Transaction distribution
system.membus.trans_dist::ReadExResp          1487836                       # Transaction distribution
system.membus.trans_dist::ReadSharedReq           602                       # Transaction distribution
system.membus.pkt_count_system.l2.mem_side::system.mem_ctrls.port      4432305                       # Packet count per connected master and slave (bytes)
system.membus.pkt_count::total                4432305                       # Packet count per connected master and slave (bytes)
system.membus.pkt_size_system.l2.mem_side::system.mem_ctrls.port    188385472                       # Cumulative packet size per connected master and slave (bytes)
system.membus.pkt_size::total               188385472                       # Cumulative packet size per connected master and slave (bytes)
system.membus.snoops                                0                       # Total snoops (count)
system.membus.snoopTraffic                          0                       # Total snoop traffic (bytes)
system.membus.snoop_fanout::samples           1488438                       # Request fanout histogram
system.membus.snoop_fanout::mean                    0                       # Request fanout histogram
system.membus.snoop_fanout::stdev                   0                       # Request fanout histogram
system.membus.snoop_fanout::underflows              0      0.00%      0.00% # Request fanout histogram
system.membus.snoop_fanout::0                 1488438    100.00%    100.00% # Request fanout histogram
system.membus.snoop_fanout::1                       0      0.00%    100.00% # Request fanout histogram
system.membus.snoop_fanout::overflows               0      0.00%    100.00% # Request fanout histogram
system.membus.snoop_fanout::min_value               0                       # Request fanout histogram
system.membus.snoop_fanout::max_value               0                       # Request fanout histogram
system.membus.snoop_fanout::total             1488438                       # Request fanout histogram
system.membus.respLayer1.occupancy         7843280750                       # Layer occupancy (ticks)
system.membus.respLayer1.utilization              4.5                       # Layer utilization (%)
system.membus.reqLayer0.occupancy          9359408500                       # Layer occupancy (ticks)
system.membus.reqLayer0.utilization               5.4                       # Layer utilization (%)
system.tol2bus.pwrStateResidencyTicks::UNDEFINED 174655605500                       # Cumulative time (in ticks) in various power states
system.tol2bus.trans_dist::ReadResp               808                       # Transaction distribution
system.tol2bus.trans_dist::WritebackDirty      2941916                       # Transaction distribution
system.tol2bus.trans_dist::WritebackClean          438                       # Transaction distribution
system.tol2bus.trans_dist::CleanEvict             696                       # Transaction distribution
system.tol2bus.trans_dist::ReadExReq          1487836                       # Transaction distribution
system.tol2bus.trans_dist::ReadExResp         1487836                       # Transaction distribution
system.tol2bus.trans_dist::ReadCleanReq           678                       # Transaction distribution
system.tol2bus.trans_dist::ReadSharedReq          130                       # Transaction distribution
system.tol2bus.pkt_count_system.cpu.icache.mem_side::system.l2.cpu_side         1794                       # Packet count per connected master and slave (bytes)
system.tol2bus.pkt_count_system.cpu.dcache.mem_side::system.l2.cpu_side      4462874                       # Packet count per connected master and slave (bytes)
system.tol2bus.pkt_count::total               4464668                       # Packet count per connected master and slave (bytes)
system.tol2bus.pkt_size_system.cpu.icache.mem_side::system.l2.cpu_side        71424                       # Cumulative packet size per connected master and slave (bytes)
system.tol2bus.pkt_size_system.cpu.dcache.mem_side::system.l2.cpu_side    190387008                       # Cumulative packet size per connected master and slave (bytes)
system.tol2bus.pkt_size::total              190458432                       # Cumulative packet size per connected master and slave (bytes)
system.tol2bus.snoops                         1455670                       # Total snoops (count)
system.tol2bus.snoopTraffic                  93125440                       # Total snoop traffic (bytes)
system.tol2bus.snoop_fanout::samples          2944314                       # Request fanout histogram
system.tol2bus.snoop_fanout::mean            0.000095                       # Request fanout histogram
system.tol2bus.snoop_fanout::stdev           0.009769                       # Request fanout histogram
system.tol2bus.snoop_fanout::underflows             0      0.00%      0.00% # Request fanout histogram
system.tol2bus.snoop_fanout::0                2944036     99.99%     99.99% # Request fanout histogram
system.tol2bus.snoop_fanout::1                    277      0.01%    100.00% # Request fanout histogram
system.tol2bus.snoop_fanout::2                      1      0.00%    100.00% # Request fanout histogram
system.tol2bus.snoop_fanout::overflows              0      0.00%    100.00% # Request fanout histogram
system.tol2bus.snoop_fanout::min_value              0                       # Request fanout histogram
system.tol2bus.snoop_fanout::max_value              2                       # Request fanout histogram
system.tol2bus.snoop_fanout::total            2944314                       # Request fanout histogram
system.tol2bus.reqLayer0.occupancy         2975281000                       # Layer occupancy (ticks)
system.tol2bus.reqLayer0.utilization              1.7                       # Layer utilization (%)
system.tol2bus.respLayer1.occupancy        2231950497                       # Layer occupancy (ticks)
system.tol2bus.respLayer1.utilization             1.3                       # Layer utilization (%)
system.tol2bus.respLayer0.occupancy           1017000                       # Layer occupancy (ticks)
system.tol2bus.respLayer0.utilization             0.0                       # Layer utilization (%)
system.voltage_domain.voltage                       1                       # Voltage in Volts
system.clk_domain.clock                          1000                       # Clock period in ticks
system.l2.pwrStateResidencyTicks::UNDEFINED 174655605500                       # Cumulative time (in ticks) in various power states
system.l2.demand_hits::.cpu.inst                  188                       # number of demand (read+write) hits
system.l2.demand_hits::.cpu.data                   15                       # number of demand (read+write) hits
system.l2.demand_hits::total                      203                       # number of demand (read+write) hits
system.l2.overall_hits::.cpu.inst                 188                       # number of overall hits
system.l2.overall_hits::.cpu.data                  15                       # number of overall hits
system.l2.overall_hits::total                     203                       # number of overall hits
system.l2.demand_misses::.cpu.inst                490                       # number of demand (read+write) misses
system.l2.demand_misses::.cpu.data            1487951                       # number of demand (read+write) misses
system.l2.demand_misses::total                1488441                       # number of demand (read+write) misses
system.l2.overall_misses::.cpu.inst               490                       # number of overall misses
system.l2.overall_misses::.cpu.data           1487951                       # number of overall misses
system.l2.overall_misses::total               1488441                       # number of overall misses
system.l2.demand_miss_latency::.cpu.inst     37065500                       # number of demand (read+write) miss cycles
system.l2.demand_miss_latency::.cpu.data 118818018000                       # number of demand (read+write) miss cycles
system.l2.demand_miss_latency::total     118855083500                       # number of demand (read+write) miss cycles
system.l2.overall_miss_latency::.cpu.inst     37065500                       # number of overall miss cycles
system.l2.overall_miss_latency::.cpu.data 118818018000                       # number of overall miss cycles
system.l2.overall_miss_latency::total    118855083500                       # number of overall miss cycles
system.l2.demand_accesses::.cpu.inst              678                       # number of demand (read+write) accesses
system.l2.demand_accesses::.cpu.data          1487966                       # number of demand (read+write) accesses
system.l2.demand_accesses::total              1488644                       # number of demand (read+write) accesses
system.l2.overall_accesses::.cpu.inst             678                       # number of overall (read+write) accesses
system.l2.overall_accesses::.cpu.data         1487966                       # number of overall (read+write) accesses
system.l2.overall_accesses::total             1488644                       # number of overall (read+write) accesses
system.l2.demand_miss_rate::.cpu.inst        0.722714                       # miss rate for demand accesses
system.l2.demand_miss_rate::.cpu.data        0.999990                       # miss rate for demand accesses
system.l2.demand_miss_rate::total            0.999864                       # miss rate for demand accesses
system.l2.overall_miss_rate::.cpu.inst       0.722714                       # miss rate for overall accesses
system.l2.overall_miss_rate::.cpu.data       0.999990                       # miss rate for overall accesses
system.l2.overall_miss_rate::total           0.999864                       # miss rate for overall accesses
system.l2.demand_avg_miss_latency::.cpu.inst 75643.877551                       # average overall miss latency
system.l2.demand_avg_miss_latency::.cpu.data 79853.448131                       # average overall miss latency
system.l2.demand_avg_miss_latency::total 79852.062326                       # average overall miss latency
system.l2.overall_avg_miss_latency::.cpu.inst 75643.877551                       # average overall miss latency
system.l2.overall_avg_miss_latency::.cpu.data 79853.448131                       # average overall miss latency
system.l2.overall_avg_miss_latency::total 79852.062326                       # average overall miss latency
system.l2.blocked_cycles::no_mshrs                  0                       # number of cycles access was blocked
system.l2.blocked_cycles::no_targets                0                       # number of cycles access was blocked
system.l2.blocked::no_mshrs                         0                       # number of cycles access was blocked
system.l2.blocked::no_targets                       0                       # number of cycles access was blocked
system.l2.avg_blocked_cycles::no_mshrs            nan                       # average number of cycles each access was blocked
system.l2.avg_blocked_cycles::no_targets          nan                       # average number of cycles each access was blocked
system.l2.writebacks::.writebacks             1455085                       # number of writebacks
system.l2.writebacks::total                   1455085                       # number of writebacks
system.l2.demand_mshr_hits::.cpu.data               3                       # number of demand (read+write) MSHR hits
system.l2.demand_mshr_hits::total                   3                       # number of demand (read+write) MSHR hits
system.l2.overall_mshr_hits::.cpu.data              3                       # number of overall MSHR hits
system.l2.overall_mshr_hits::total                  3                       # number of overall MSHR hits
system.l2.demand_mshr_misses::.cpu.inst           490                       # number of demand (read+write) MSHR misses
system.l2.demand_mshr_misses::.cpu.data       1487948                       # number of demand (read+write) MSHR misses
system.l2.demand_mshr_misses::total           1488438                       # number of demand (read+write) MSHR misses
system.l2.overall_mshr_misses::.cpu.inst          490                       # number of overall MSHR misses
system.l2.overall_mshr_misses::.cpu.data      1487948                       # number of overall MSHR misses
system.l2.overall_mshr_misses::total          1488438                       # number of overall MSHR misses
system.l2.demand_mshr_miss_latency::.cpu.inst     32165500                       # number of demand (read+write) MSHR miss cycles
system.l2.demand_mshr_miss_latency::.cpu.data 103938336500                       # number of demand (read+write) MSHR miss cycles
system.l2.demand_mshr_miss_latency::total 103970502000                       # number of demand (read+write) MSHR miss cycles
system.l2.overall_mshr_miss_latency::.cpu.inst     32165500                       # number of overall MSHR miss cycles
system.l2.overall_mshr_miss_latency::.cpu.data 103938336500                       # number of overall MSHR miss cycles
system.l2.overall_mshr_miss_latency::total 103970502000                       # number of overall MSHR miss cycles
system.l2.demand_mshr_miss_rate::.cpu.inst     0.722714                       # mshr miss rate for demand accesses
system.l2.demand_mshr_miss_rate::.cpu.data     0.999988                       # mshr miss rate for demand accesses
system.l2.demand_mshr_miss_rate::total       0.999862                       # mshr miss rate for demand accesses
system.l2.overall_mshr_miss_rate::.cpu.inst     0.722714                       # mshr miss rate for overall accesses
system.l2.overall_mshr_miss_rate::.cpu.data     0.999988                       # mshr miss rate for overall accesses
system.l2.overall_mshr_miss_rate::total      0.999862                       # mshr miss rate for overall accesses
system.l2.demand_avg_mshr_miss_latency::.cpu.inst 65643.877551                       # average overall mshr miss latency
system.l2.demand_avg_mshr_miss_latency::.cpu.data 69853.473710                       # average overall mshr miss latency
system.l2.demand_avg_mshr_miss_latency::total 69852.087893                       # average overall mshr miss latency
system.l2.overall_avg_mshr_miss_latency::.cpu.inst 65643.877551                       # average overall mshr miss latency
system.l2.overall_avg_mshr_miss_latency::.cpu.data 69853.473710                       # average overall mshr miss latency
system.l2.overall_avg_mshr_miss_latency::total 69852.087893                       # average overall mshr miss latency
system.l2.replacements                        1455670                       # number of replacements
system.l2.WritebackDirty_hits::.writebacks      1486831                       # number of WritebackDirty hits
system.l2.WritebackDirty_hits::total          1486831                       # number of WritebackDirty hits
system.l2.WritebackDirty_accesses::.writebacks      1486831                       # number of WritebackDirty accesses(hits+misses)
system.l2.WritebackDirty_accesses::total      1486831                       # number of WritebackDirty accesses(hits+misses)
system.l2.WritebackClean_hits::.writebacks          416                       # number of WritebackClean hits
system.l2.WritebackClean_hits::total              416                       # number of WritebackClean hits
system.l2.WritebackClean_accesses::.writebacks          416                       # number of WritebackClean accesses(hits+misses)
system.l2.WritebackClean_accesses::total          416                       # number of WritebackClean accesses(hits+misses)
system.l2.ReadExReq_misses::.cpu.data         1487836                       # number of ReadExReq misses
system.l2.ReadExReq_misses::total             1487836                       # number of ReadExReq misses
system.l2.ReadExReq_miss_latency::.cpu.data 118808646500                       # number of ReadExReq miss cycles
system.l2.ReadExReq_miss_latency::total  118808646500                       # number of ReadExReq miss cycles
system.l2.ReadExReq_accesses::.cpu.data       1487836                       # number of ReadExReq accesses(hits+misses)
system.l2.ReadExReq_accesses::total           1487836                       # number of ReadExReq accesses(hits+misses)
system.l2.ReadExReq_miss_rate::.cpu.data            1                       # miss rate for ReadExReq accesses
system.l2.ReadExReq_miss_rate::total                1                       # miss rate for ReadExReq accesses
system.l2.ReadExReq_avg_miss_latency::.cpu.data 79853.321535                       # average ReadExReq miss latency
system.l2.ReadExReq_avg_miss_latency::total 79853.321535                       # average ReadExReq miss latency
system.l2.ReadExReq_mshr_misses::.cpu.data      1487836                       # number of ReadExReq MSHR misses
system.l2.ReadExReq_mshr_misses::total        1487836                       # number of ReadExReq MSHR misses
system.l2.ReadExReq_mshr_miss_latency::.cpu.data 103930286500                       # number of ReadExReq MSHR miss cycles
system.l2.ReadExReq_mshr_miss_latency::total 103930286500                       # number of ReadExReq MSHR miss cycles
system.l2.ReadExReq_mshr_miss_rate::.cpu.data            1                       # mshr miss rate for ReadExReq accesses
system.l2.ReadExReq_mshr_miss_rate::total            1                       # mshr miss rate for ReadExReq accesses
system.l2.ReadExReq_avg_mshr_miss_latency::.cpu.data 69853.321535                       # average ReadExReq mshr miss latency
system.l2.ReadExReq_avg_mshr_miss_latency::total 69853.321535                       # average ReadExReq mshr miss latency
system.l2.ReadCleanReq_hits::.cpu.inst            188                       # number of ReadCleanReq hits
system.l2.ReadCleanReq_hits::total                188                       # number of ReadCleanReq hits
system.l2.ReadCleanReq_misses::.cpu.inst          490                       # number of ReadCleanReq misses
system.l2.ReadCleanReq_misses::total              490                       # number of ReadCleanReq misses
system.l2.ReadCleanReq_miss_latency::.cpu.inst     37065500                       # number of ReadCleanReq miss cycles
system.l2.ReadCleanReq_miss_latency::total     37065500                       # number of ReadCleanReq miss cycles
system.l2.ReadCleanReq_accesses::.cpu.inst          678                       # number of ReadCleanReq accesses(hits+misses)
system.l2.ReadCleanReq_accesses::total            678                       # number of ReadCleanReq accesses(hits+misses)
system.l2.ReadCleanReq_miss_rate::.cpu.inst     0.722714                       # miss rate for ReadCleanReq accesses
system.l2.ReadCleanReq_miss_rate::total      0.722714                       # miss rate for ReadCleanReq accesses
system.l2.ReadCleanReq_avg_miss_latency::.cpu.inst 75643.877551                       # average ReadCleanReq miss latency
system.l2.ReadCleanReq_avg_miss_latency::total 75643.877551                       # average ReadCleanReq miss latency
system.l2.ReadCleanReq_mshr_misses::.cpu.inst          490                       # number of ReadCleanReq MSHR misses
system.l2.ReadCleanReq_mshr_misses::total          490                       # number of ReadCleanReq MSHR misses
system.l2.ReadCleanReq_mshr_miss_latency::.cpu.inst     32165500                       # number of ReadCleanReq MSHR miss cycles
system.l2.ReadCleanReq_mshr_miss_latency::total     32165500                       # number of ReadCleanReq MSHR miss cycles
system.l2.ReadCleanReq_mshr_miss_rate::.cpu.inst     0.722714                       # mshr miss rate for ReadCleanReq accesses
system.l2.ReadCleanReq_mshr_miss_rate::total     0.722714                       # mshr miss rate for ReadCleanReq accesses
system.l2.ReadCleanReq_avg_mshr_miss_latency::.cpu.inst 65643.877551                       # average ReadCleanReq mshr miss latency
system.l2.ReadCleanReq_avg_mshr_miss_latency::total 65643.877551                       # average ReadCleanReq mshr miss latency
system.l2.ReadSharedReq_hits::.cpu.data            15                       # number of ReadSharedReq hits
system.l2.ReadSharedReq_hits::total                15                       # number of ReadSharedReq hits
system.l2.ReadSharedReq_misses::.cpu.data          115                       # number of ReadSharedReq misses
system.l2.ReadSharedReq_misses::total             115                       # number of ReadSharedReq misses
system.l2.ReadSharedReq_miss_latency::.cpu.data      9371500                       # number of ReadSharedReq miss cycles
system.l2.ReadSharedReq_miss_latency::total      9371500                       # number of ReadSharedReq miss cycles
system.l2.ReadSharedReq_accesses::.cpu.data          130                       # number of ReadSharedReq accesses(hits+misses)
system.l2.ReadSharedReq_accesses::total           130                       # number of ReadSharedReq accesses(hits+misses)
system.l2.ReadSharedReq_miss_rate::.cpu.data     0.884615                       # miss rate for ReadSharedReq accesses
system.l2.ReadSharedReq_miss_rate::total     0.884615                       # miss rate for ReadSharedReq accesses
system.l2.ReadSharedReq_avg_miss_latency::.cpu.data 81491.304348                       # average ReadSharedReq miss latency
system.l2.ReadSharedReq_avg_miss_latency::total 81491.304348                       # average ReadSharedReq miss latency
system.l2.ReadSharedReq_mshr_hits::.cpu.data            3                       # number of ReadSharedReq MSHR hits
system.l2.ReadSharedReq_mshr_hits::total            3                       # number of ReadSharedReq MSHR hits
system.l2.ReadSharedReq_mshr_misses::.cpu.data          112                       # number of ReadSharedReq MSHR misses
system.l2.ReadSharedReq_mshr_misses::total          112                       # number of ReadSharedReq MSHR misses
system.l2.ReadSharedReq_mshr_miss_latency::.cpu.data      8050000                       # number of ReadSharedReq MSHR miss cycles
system.l2.ReadSharedReq_mshr_miss_latency::total      8050000                       # number of ReadSharedReq MSHR miss cycles
system.l2.ReadSharedReq_mshr_miss_rate::.cpu.data     0.861538                       # mshr miss rate for ReadSharedReq accesses
system.l2.ReadSharedReq_mshr_miss_rate::total     0.861538                       # mshr miss rate for ReadSharedReq accesses
system.l2.ReadSharedReq_avg_mshr_miss_latency::.cpu.data        71875                       # average ReadSharedReq mshr miss latency
system.l2.ReadSharedReq_avg_mshr_miss_latency::total        71875                       # average ReadSharedReq mshr miss latency
system.l2.tags.pwrStateResidencyTicks::UNDEFINED 174655605500                       # Cumulative time (in ticks) in various power states
system.l2.tags.tagsinuse                 32427.652366                       # Cycle average of tags in use
system.l2.tags.total_refs                     2975985                       # Total number of references to valid blocks.
system.l2.tags.sampled_refs                   1488438                       # Sample count of references to valid blocks.
system.l2.tags.avg_refs                      1.999401                       # Average number of references to valid blocks.
system.l2.tags.warmup_cycle                     77000                       # Cycle when the warmup percentage was hit.
system.l2.tags.occ_blocks::.cpu.inst         9.592540                       # Average occupied blocks per requestor
system.l2.tags.occ_blocks::.cpu.data     32418.059826                       # Average occupied blocks per requestor
system.l2.tags.occ_percent::.cpu.inst        0.000293                       # Average percentage of cache occupancy
system.l2.tags.occ_percent::.cpu.data        0.989321                       # Average percentage of cache occupancy
system.l2.tags.occ_percent::total            0.989613                       # Average percentage of cache occupancy
system.l2.tags.occ_task_id_blocks::1024         32768                       # Occupied blocks per task id
system.l2.tags.age_task_id_blocks_1024::0           84                       # Occupied blocks per task id
system.l2.tags.age_task_id_blocks_1024::1          770                       # Occupied blocks per task id
system.l2.tags.age_task_id_blocks_1024::2         7674                       # Occupied blocks per task id
system.l2.tags.age_task_id_blocks_1024::3        24240                       # Occupied blocks per task id
system.l2.tags.occ_task_id_percent::1024            1                       # Percentage of cache occupancy per task id
system.l2.tags.tag_accesses                  25296342                       # Number of tag accesses
system.l2.tags.data_accesses                 25296342                       # Number of data accesses
system.cpu_voltage_domain.voltage                   1                       # Voltage in Volts
system.mem_ctrls.pwrStateResidencyTicks::UNDEFINED 174655605500                       # Cumulative time (in ticks) in various power states
system.mem_ctrls.bytes_read::.cpu.inst          31360                       # Number of bytes read from this memory
system.mem_ctrls.bytes_read::.cpu.data       95228672                       # Number of bytes read from this memory
system.mem_ctrls.bytes_read::total           95260032                       # Number of bytes read from this memory
system.mem_ctrls.bytes_inst_read::.cpu.inst        31360                       # Number of instructions bytes read from this memory
system.mem_ctrls.bytes_inst_read::total         31360                       # Number of instructions bytes read from this memory
system.mem_ctrls.bytes_written::.writebacks     93125440                       # Number of bytes written to this memory
system.mem_ctrls.bytes_written::total        93125440                       # Number of bytes written to this memory
system.mem_ctrls.num_reads::.cpu.inst             490                       # Number of read requests responded to by this memory
system.mem_ctrls.num_reads::.cpu.data         1487948                       # Number of read requests responded to by this memory
system.mem_ctrls.num_reads::total             1488438                       # Number of read requests responded to by this memory
system.mem_ctrls.num_writes::.writebacks      1455085                       # Number of write requests responded to by this memory
system.mem_ctrls.num_writes::total            1455085                       # Number of write requests responded to by this memory
system.mem_ctrls.bw_read::.cpu.inst            179553                       # Total read bandwidth from this memory (bytes/s)
system.mem_ctrls.bw_read::.cpu.data         545236849                       # Total read bandwidth from this memory (bytes/s)
system.mem_ctrls.bw_read::total             545416402                       # Total read bandwidth from this memory (bytes/s)
system.mem_ctrls.bw_inst_read::.cpu.inst       179553                       # Instruction read bandwidth from this memory (bytes/s)
system.mem_ctrls.bw_inst_read::total           179553                       # Instruction read bandwidth from this memory (bytes/s)
system.mem_ctrls.bw_write::.writebacks      533194682                       # Write bandwidth from this memory (bytes/s)
system.mem_ctrls.bw_write::total            533194682                       # Write bandwidth from this memory (bytes/s)
system.mem_ctrls.bw_total::.writebacks      533194682                       # Total bandwidth to/from this memory (bytes/s)
system.mem_ctrls.bw_total::.cpu.inst           179553                       # Total bandwidth to/from this memory (bytes/s)
system.mem_ctrls.bw_total::.cpu.data        545236849                       # Total bandwidth to/from this memory (bytes/s)
system.mem_ctrls.bw_total::total           1078611084                       # Total bandwidth to/from this memory (bytes/s)
system.mem_ctrls.avgPriority_.writebacks::samples   1455085.00                       # Average QoS priority value for accepted requests
system.mem_ctrls.avgPriority_.cpu.inst::samples       490.00                       # Average QoS priority value for accepted requests
system.mem_ctrls.avgPriority_.cpu.data::samples   1487948.00                       # Average QoS priority value for accepted requests
system.mem_ctrls.priorityMinLatency      0.000000018750                       # per QoS priority minimum request to response latency (s)
system.mem_ctrls.priorityMaxLatency      0.000908653250                       # per QoS priority maximum request to response latency (s)
system.mem_ctrls.numReadWriteTurnArounds        90481                       # Number of turnarounds from READ to WRITE
system.mem_ctrls.numWriteReadTurnArounds        90481                       # Number of turnarounds from WRITE to READ
system.mem_ctrls.numStayReadState             4382645                       # Number of times bus staying in READ state
system.mem_ctrls.numStayWriteState            1366953                       # Number of times bus staying in WRITE state
system.mem_ctrls.readReqs                     1488438                       # Number of read requests accepted
system.mem_ctrls.writeReqs                    1455085                       # Number of write requests accepted
system.mem_ctrls.readBursts                   1488438                       # Number of DRAM read bursts, including those serviced by the write queue
system.mem_ctrls.writeBursts                  1455085                       # Number of DRAM write bursts, including those merged in the write queue
system.mem_ctrls.servicedByWrQ                      0                       # Number of DRAM read bursts serviced by the write queue
system.mem_ctrls.mergedWrBursts                     0                       # Number of DRAM write bursts merged with an existing one
system.mem_ctrls.neitherReadNorWriteReqs            0                       # Number of requests that are neither read nor write
system.mem_ctrls.perBankRdBursts::0             93064                       # Per bank write bursts
system.mem_ctrls.perBankRdBursts::1             92958                       # Per bank write bursts
system.mem_ctrls.perBankRdBursts::2             92993                       # Per bank write bursts
system.mem_ctrls.perBankRdBursts::3             93001                       # Per bank write bursts
system.mem_ctrls.perBankRdBursts::4             93101                       # Per bank write bursts
system.mem_ctrls.perBankRdBursts::5             93074                       # Per bank write bursts
system.mem_ctrls.perBankRdBursts::6             93061                       # Per bank write bursts
system.mem_ctrls.perBankRdBursts::7             93078                       # Per bank write bursts
system.mem_ctrls.perBankRdBursts::8             93156                       # Per bank write bursts
system.mem_ctrls.perBankRdBursts::9             93072                       # Per bank write bursts
system.mem_ctrls.perBankRdBursts::10            93036                       # Per bank write bursts
system.mem_ctrls.perBankRdBursts::11            92953                       # Per bank write bursts
system.mem_ctrls.perBankRdBursts::12            92999                       # Per bank write bursts
system.mem_ctrls.perBankRdBursts::13            92951                       # Per bank write bursts
system.mem_ctrls.perBankRdBursts::14            92954                       # Per bank write bursts
system.mem_ctrls.perBankRdBursts::15            92987                       # Per bank write bursts
system.mem_ctrls.perBankWrBursts::0             90924                       # Per bank write bursts
system.mem_ctrls.perBankWrBursts::1             90902                       # Per bank write bursts
system.mem_ctrls.perBankWrBursts::2             90895                       # Per bank write bursts
system.mem_ctrls.perBankWrBursts::3             90950                       # Per bank write bursts
system.mem_ctrls.perBankWrBursts::4             91009                       # Per bank write bursts
system.mem_ctrls.perBankWrBursts::5             91008                       # Per bank write bursts
system.mem_ctrls.perBankWrBursts::6             91008                       # Per bank write bursts
system.mem_ctrls.perBankWrBursts::7             91008                       # Per bank write bursts
system.mem_ctrls.perBankWrBursts::8             91008                       # Per bank write bursts
system.mem_ctrls.perBankWrBursts::9             91008                       # Per bank write bursts
system.mem_ctrls.perBankWrBursts::10            90929                       # Per bank write bursts
system.mem_ctrls.perBankWrBursts::11            90880                       # Per bank write bursts
system.mem_ctrls.perBankWrBursts::12            90880                       # Per bank write bursts
system.mem_ctrls.perBankWrBursts::13            90880                       # Per bank write bursts
system.mem_ctrls.perBankWrBursts::14            90880                       # Per bank write bursts
system.mem_ctrls.perBankWrBursts::15            90884                       # Per bank write bursts
system.mem_ctrls.avgRdQLen                       1.00                       # Average read queue length when enqueuing
system.mem_ctrls.avgWrQLen                      25.37                       # Average write queue length when enqueuing
system.mem_ctrls.totQLat                  14784233250                       # Total ticks spent queuing
system.mem_ctrls.totBusLat                 7442190000                       # Total ticks spent in databus transfers
system.mem_ctrls.totMemAccLat             42692445750                       # Total ticks spent from burst creation until serviced by the DRAM
system.mem_ctrls.avgQLat                      9932.72                       # Average queueing delay per DRAM burst
system.mem_ctrls.avgBusLat                    5000.00                       # Average bus latency per DRAM burst
system.mem_ctrls.avgMemAccLat                28682.72                       # Average memory access latency per DRAM burst
system.mem_ctrls.numRdRetry                         0                       # Number of times read queue was full causing retry
system.mem_ctrls.numWrRetry                         0                       # Number of times write queue was full causing retry
system.mem_ctrls.readRowHits                  1364926                       # Number of row buffer hits during reads
system.mem_ctrls.writeRowHits                 1350208                       # Number of row buffer hits during writes
system.mem_ctrls.readRowHitRate                 91.70                       # Row buffer hit rate for reads
system.mem_ctrls.writeRowHitRate                92.79                       # Row buffer hit rate for writes
system.mem_ctrls.readPktSize::0                     0                       # Read request sizes (log2)
system.mem_ctrls.readPktSize::1                     0                       # Read request sizes (log2)
system.mem_ctrls.readPktSize::2                     0                       # Read request sizes (log2)
system.mem_ctrls.readPktSize::3                     0                       # Read request sizes (log2)
system.mem_ctrls.readPktSize::4                     0                       # Read request sizes (log2)
system.mem_ctrls.readPktSize::5                     0                       # Read request sizes (log2)
system.mem_ctrls.readPktSize::6               1488438                       # Read request sizes (log2)
system.mem_ctrls.writePktSize::0                    0                       # Write request sizes (log2)
system.mem_ctrls.writePktSize::1                    0                       # Write request sizes (log2)
system.mem_ctrls.writePktSize::2                    0                       # Write request sizes (log2)
system.mem_ctrls.writePktSize::3                    0                       # Write request sizes (log2)
system.mem_ctrls.writePktSize::4                    0                       # Write request sizes (log2)
system.mem_ctrls.writePktSize::5                    0                       # Write request sizes (log2)
system.mem_ctrls.writePktSize::6              1455085                       # Write request sizes (log2)
system.mem_ctrls.rdQLenPdf::0                 1488339                       # What read queue length does an incoming req see
system.mem_ctrls.rdQLenPdf::1                      91                       # What read queue length does an incoming req see
system.mem_ctrls.rdQLenPdf::2                       7                       # What read queue length does an incoming req see
system.mem_ctrls.rdQLenPdf::3                       1                       # What read queue length does an incoming req see
system.mem_ctrls.rdQLenPdf::4                       0                       # What read queue length does an incoming req see
system.mem_ctrls.rdQLenPdf::5                       0                       # What read queue length does an incoming req see
system.mem_ctrls.rdQLenPdf::6                       0                       # What read queue length does an incoming req see
system.mem_ctrls.rdQLenPdf::7                       0                       # What read queue length does an incoming req see
system.mem_ctrls.rdQLenPdf::8                       0                       # What read queue length does an incoming req see
system.mem_ctrls.rdQLenPdf::9                       0                       # What read queue length does an incoming req see
system.mem_ctrls.rdQLenPdf::10                      0                       # What read queue length does an incoming req see
system.mem_ctrls.rdQLenPdf::11                      0                       # What read queue length does an incoming req see
system.mem_ctrls.rdQLenPdf::12                      0                       # What read queue length does an incoming req see
system.mem_ctrls.rdQLenPdf::13                      0                       # What read queue length does an incoming req see
system.mem_ctrls.rdQLenPdf::14                      0                       # What read queue length does an incoming req see
system.mem_ctrls.rdQLenPdf::15                      0                       # What read queue length does an incoming req see
system.mem_ctrls.rdQLenPdf::16                      0                       # What read queue length does an incoming req see
system.mem_ctrls.rdQLenPdf::17                      0                       # What read queue length does an incoming req see
system.mem_ctrls.rdQLenPdf::18                      0                       # What read queue length does an incoming req see
system.mem_ctrls.rdQLenPdf::19                      0                       # What read queue length does an incoming req see
system.mem_ctrls.rdQLenPdf::20                      0                       # What read queue length does an incoming req see
system.mem_ctrls.rdQLenPdf::21                      0                       # What read queue length does an incoming req see
system.mem_ctrls.rdQLenPdf::22                      0                       # What read queue length does an incoming req see
system.mem_ctrls.rdQLenPdf::23                      0                       # What read queue length does an incoming req see
system.mem_ctrls.rdQLenPdf::24                      0                       # What read queue length does an incoming req see
system.mem_ctrls.rdQLenPdf::25                      0                       # What read queue length does an incoming req see
system.mem_ctrls.rdQLenPdf::26                      0                       # What read queue length does an incoming req see
system.mem_ctrls.rdQLenPdf::27                      0                       # What read queue length does an incoming req see
system.mem_ctrls.rdQLenPdf::28                      0                       # What read queue length does an incoming req see
system.mem_ctrls.rdQLenPdf::29                      0                       # What read queue length does an incoming req see
system.mem_ctrls.rdQLenPdf::30                      0                       # What read queue length does an incoming req see
system.mem_ctrls.rdQLenPdf::31                      0                       # What read queue length does an incoming req see
system.mem_ctrls.wrQLenPdf::0                       1                       # What write queue length does an incoming req see
system.mem_ctrls.wrQLenPdf::1                       1                       # What write queue length does an incoming req see
system.mem_ctrls.wrQLenPdf::2                       1                       # What write queue length does an incoming req see
system.mem_ctrls.wrQLenPdf::3                       1                       # What write queue length does an incoming req see
system.mem_ctrls.wrQLenPdf::4                       1                       # What write queue length does an incoming req see
system.mem_ctrls.wrQLenPdf::5                       1                       # What write queue length does an incoming req see
system.mem_ctrls.wrQLenPdf::6                       1                       # What write queue length does an incoming req see
system.mem_ctrls.wrQLenPdf::7                       1                       # What write queue length does an incoming req see
system.mem_ctrls.wrQLenPdf::8                       1                       # What write queue length does an incoming req see
system.mem_ctrls.wrQLenPdf::9                       1                       # What write queue length does an incoming req see
system.mem_ctrls.wrQLenPdf::10                      1                       # What write queue length does an incoming req see
system.mem_ctrls.wrQLenPdf::11                      1                       # What write queue length does an incoming req see
system.mem_ctrls.wrQLenPdf::12                      1                       # What write queue length does an incoming req see
system.mem_ctrls.wrQLenPdf::13                      1                       # What write queue length does an incoming req see
system.mem_ctrls.wrQLenPdf::14                      1                       # What write queue length does an incoming req see
system.mem_ctrls.wrQLenPdf::15                   1278                       # What write queue length does an incoming req see
system.mem_ctrls.wrQLenPdf::16                   3154                       # What write queue length does an incoming req see
system.mem_ctrls.wrQLenPdf::17                  91407                       # What write queue length does an incoming req see
system.mem_ctrls.wrQLenPdf::18                  90483                       # What write queue length does an incoming req see
system.mem_ctrls.wrQLenPdf::19                  90651                       # What write queue length does an incoming req see
system.mem_ctrls.wrQLenPdf::20                  90539                       # What write queue length does an incoming req see
system.mem_ctrls.wrQLenPdf::21                  90490                       # What write queue length does an incoming req see
system.mem_ctrls.wrQLenPdf::22                  90485                       # What write queue length does an incoming req see
system.mem_ctrls.wrQLenPdf::23                  90483                       # What write queue length does an incoming req see
system.mem_ctrls.wrQLenPdf::24                  90482                       # What write queue length does an incoming req see
system.mem_ctrls.wrQLenPdf::25                  92245                       # What write queue length does an incoming req see
system.mem_ctrls.wrQLenPdf::26                  90482                       # What write queue length does an incoming req see
system.mem_ctrls.wrQLenPdf::27                  90482                       # What write queue length does an incoming req see
system.mem_ctrls.wrQLenPdf::28                  90482                       # What write queue length does an incoming req see
system.mem_ctrls.wrQLenPdf::29                  90482                       # What write queue length does an incoming req see
system.mem_ctrls.wrQLenPdf::30                  90482                       # What write queue length does an incoming req see
system.mem_ctrls.wrQLenPdf::31                  90482                       # What write queue length does an incoming req see
system.mem_ctrls.wrQLenPdf::32                  90481                       # What write queue length does an incoming req see
system.mem_ctrls.wrQLenPdf::33                      0                       # What write queue length does an incoming req see
system.mem_ctrls.wrQLenPdf::34                      0                       # What write queue length does an incoming req see
system.mem_ctrls.wrQLenPdf::35                      0                       # What write queue length does an incoming req see
system.mem_ctrls.wrQLenPdf::36                      0                       # What write queue length does an incoming req see
system.mem_ctrls.wrQLenPdf::37                      0                       # What write queue length does an incoming req see
system.mem_ctrls.wrQLenPdf::38                      0                       # What write queue length does an incoming req see
system.mem_ctrls.wrQLenPdf::39                      0                       # What write queue length does an incoming req see
system.mem_ctrls.wrQLenPdf::40                      0                       # What write queue length does an incoming req see
system.mem_ctrls.wrQLenPdf::41                      0                       # What write queue length does an incoming req see
system.mem_ctrls.wrQLenPdf::42                      0                       # What write queue length does an incoming req see
system.mem_ctrls.wrQLenPdf::43                      0                       # What write queue length does an incoming req see
system.mem_ctrls.wrQLenPdf::44                      0                       # What write queue length does an incoming req see
system.mem_ctrls.wrQLenPdf::45                      0                       # What write queue length does an incoming req see
system.mem_ctrls.wrQLenPdf::46                      0                       # What write queue length does an incoming req see
system.mem_ctrls.wrQLenPdf::47                      0                       # What write queue length does an incoming req see
system.mem_ctrls.wrQLenPdf::48                      0                       # What write queue length does an incoming req see
system.mem_ctrls.wrQLenPdf::49                      0                       # What write queue length does an incoming req see
system.mem_ctrls.wrQLenPdf::50                      0                       # What write queue length does an incoming req see
system.mem_ctrls.wrQLenPdf::51                      0                       # What write queue length does an incoming req see
system.mem_ctrls.wrQLenPdf::52                      0                       # What write queue length does an incoming req see
system.mem_ctrls.wrQLenPdf::53                      0                       # What write queue length does an incoming req see
system.mem_ctrls.wrQLenPdf::54                      0                       # What write queue length does an incoming req see
system.mem_ctrls.wrQLenPdf::55                      0                       # What write queue length does an incoming req see
system.mem_ctrls.wrQLenPdf::56                      0                       # What write queue length does an incoming req see
system.mem_ctrls.wrQLenPdf::57                      0                       # What write queue length does an incoming req see
system.mem_ctrls.wrQLenPdf::58                      0                       # What write queue length does an incoming req see
system.mem_ctrls.wrQLenPdf::59                      0                       # What write queue length does an incoming req see
system.mem_ctrls.wrQLenPdf::60                      0                       # What write queue length does an incoming req see
system.mem_ctrls.wrQLenPdf::61                      0                       # What write queue length does an incoming req see
system.mem_ctrls.wrQLenPdf::62                      0                       # What write queue length does an incoming req see
system.mem_ctrls.wrQLenPdf::63                      0                       # What write queue length does an incoming req see
system.mem_ctrls.bytesPerActivate::samples       228357                       # Bytes accessed per row activation
system.mem_ctrls.bytesPerActivate::mean    824.951388                       # Bytes accessed per row activation
system.mem_ctrls.bytesPerActivate::gmean   693.835994                       # Bytes accessed per row activation
system.mem_ctrls.bytesPerActivate::stdev   318.396349                       # Bytes accessed per row activation
system.mem_ctrls.bytesPerActivate::0-127        12955      5.67%      5.67% # Bytes accessed per row activation
system.mem_ctrls.bytesPerActivate::128-255         9414      4.12%      9.80% # Bytes accessed per row activation
system.mem_ctrls.bytesPerActivate::256-383         7069      3.10%     12.89% # Bytes accessed per row activation
system.mem_ctrls.bytesPerActivate::384-511        11122      4.87%     17.76% # Bytes accessed per row activation
system.mem_ctrls.bytesPerActivate::512-639        18600      8.15%     25.91% # Bytes accessed per row activation
system.mem_ctrls.bytesPerActivate::640-767         5920      2.59%     28.50% # Bytes accessed per row activation
system.mem_ctrls.bytesPerActivate::768-895         5867      2.57%     31.07% # Bytes accessed per row activation
system.mem_ctrls.bytesPerActivate::896-1023         9554      4.18%     35.25% # Bytes accessed per row activation
system.mem_ctrls.bytesPerActivate::1024-1151       147856     64.75%    100.00% # Bytes accessed per row activation
system.mem_ctrls.bytesPerActivate::total       228357                       # Bytes accessed per row activation
system.mem_ctrls.rdPerTurnAround::samples        90481                       # Reads before turning the bus around for writes
system.mem_ctrls.rdPerTurnAround::mean      16.450106                       # Reads before turning the bus around for writes
system.mem_ctrls.rdPerTurnAround::gmean     16.081267                       # Reads before turning the bus around for writes
system.mem_ctrls.rdPerTurnAround::stdev    103.245308                       # Reads before turning the bus around for writes
system.mem_ctrls.rdPerTurnAround::0-1023        90479    100.00%    100.00% # Reads before turning the bus around for writes
system.mem_ctrls.rdPerTurnAround::2048-3071            1      0.00%    100.00% # Reads before turning the bus around for writes
system.mem_ctrls.rdPerTurnAround::30720-31743            1      0.00%    100.00% # Reads before turning the bus around for writes
system.mem_ctrls.rdPerTurnAround::total         90481                       # Reads before turning the bus around for writes
system.mem_ctrls.wrPerTurnAround::samples        90481                       # Writes before turning the bus around for reads
system.mem_ctrls.wrPerTurnAround::mean      16.081310                       # Writes before turning the bus around for reads
system.mem_ctrls.wrPerTurnAround::gmean     16.075705                       # Writes before turning the bus around for reads
system.mem_ctrls.wrPerTurnAround::stdev      0.445366                       # Writes before turning the bus around for reads
system.mem_ctrls.wrPerTurnAround::16            87441     96.64%     96.64% # Writes before turning the bus around for reads
system.mem_ctrls.wrPerTurnAround::18             1763      1.95%     98.59% # Writes before turning the bus around for reads
system.mem_ctrls.wrPerTurnAround::19             1277      1.41%    100.00% # Writes before turning the bus around for reads
system.mem_ctrls.wrPerTurnAround::total         90481                       # Writes before turning the bus around for reads
system.mem_ctrls.bytesReadDRAM               95260032                       # Total number of bytes read from DRAM
[...]
system.cpu.icache.ReadReq_avg_miss_latency::.cpu.inst 60110.619469                       # average ReadReq miss latency
system.cpu.icache.ReadReq_avg_miss_latency::total 60110.619469                       # average ReadReq miss latency
system.cpu.icache.ReadReq_mshr_misses::.cpu.inst          678                       # number of ReadReq MSHR misses
system.cpu.icache.ReadReq_mshr_misses::total          678                       # number of ReadReq MSHR misses
system.cpu.icache.ReadReq_mshr_miss_latency::.cpu.inst     40077000                       # number of ReadReq MSHR miss cycles
system.cpu.icache.ReadReq_mshr_miss_latency::total     40077000                       # number of ReadReq MSHR miss cycles
system.cpu.icache.ReadReq_mshr_miss_rate::.cpu.inst     0.000114                       # mshr miss rate for ReadReq accesses
system.cpu.icache.ReadReq_mshr_miss_rate::total     0.000114                       # mshr miss rate for ReadReq accesses
system.cpu.icache.ReadReq_avg_mshr_miss_latency::.cpu.inst 59110.619469                       # average ReadReq mshr miss latency
system.cpu.icache.ReadReq_avg_mshr_miss_latency::total 59110.619469                       # average ReadReq mshr miss latency
system.cpu.icache.tags.pwrStateResidencyTicks::UNDEFINED 174655605500                       # Cumulative time (in ticks) in various power states
system.cpu.icache.tags.tagsinuse           239.972848                       # Cycle average of tags in use
system.cpu.icache.tags.total_refs             5959833                       # Total number of references to valid blocks.
system.cpu.icache.tags.sampled_refs               678                       # Sample count of references to valid blocks.
system.cpu.icache.tags.avg_refs           8790.314159                       # Average number of references to valid blocks.
system.cpu.icache.tags.warmup_cycle             87500                       # Cycle when the warmup percentage was hit.
system.cpu.icache.tags.occ_blocks::.cpu.inst   239.972848                       # Average occupied blocks per requestor
system.cpu.icache.tags.occ_percent::.cpu.inst     0.937394                       # Average percentage of cache occupancy
system.cpu.icache.tags.occ_percent::total     0.937394                       # Average percentage of cache occupancy
system.cpu.icache.tags.occ_task_id_blocks::1024          240                       # Occupied blocks per task id
system.cpu.icache.tags.age_task_id_blocks_1024::4          240                       # Occupied blocks per task id
system.cpu.icache.tags.occ_task_id_percent::1024     0.937500                       # Percentage of cache occupancy per task id
system.cpu.icache.tags.tag_accesses          11920344                       # Number of tag accesses
system.cpu.icache.tags.data_accesses         11920344                       # Number of data accesses
system.cpu.dtb.walker.pwrStateResidencyTicks::UNDEFINED 174655605500                       # Cumulative time (in ticks) in various power states
system.cpu.dtb.stage2_mmu.stage2_tlb.walker.pwrStateResidencyTicks::UNDEFINED 174655605500                       # Cumulative time (in ticks) in various power states
system.cpu.dcache.pwrStateResidencyTicks::UNDEFINED 174655605500                       # Cumulative time (in ticks) in various power states
system.cpu.dcache.demand_hits::.cpu.data     45830763                       # number of demand (read+write) hits
system.cpu.dcache.demand_hits::total         45830763                       # number of demand (read+write) hits
system.cpu.dcache.overall_hits::.cpu.data     45830800                       # number of overall hits
system.cpu.dcache.overall_hits::total        45830800                       # number of overall hits
system.cpu.dcache.demand_misses::.cpu.data      2975767                       # number of demand (read+write) misses
system.cpu.dcache.demand_misses::total        2975767                       # number of demand (read+write) misses
system.cpu.dcache.overall_misses::.cpu.data      2975787                       # number of overall misses
system.cpu.dcache.overall_misses::total       2975787                       # number of overall misses
system.cpu.dcache.demand_miss_latency::.cpu.data 237177928500                       # number of demand (read+write) miss cycles
system.cpu.dcache.demand_miss_latency::total 237177928500                       # number of demand (read+write) miss cycles
system.cpu.dcache.overall_miss_latency::.cpu.data 237177928500                       # number of overall miss cycles
system.cpu.dcache.overall_miss_latency::total 237177928500                       # number of overall miss cycles
system.cpu.dcache.demand_accesses::.cpu.data     48806530                       # number of demand (read+write) accesses
system.cpu.dcache.demand_accesses::total     48806530                       # number of demand (read+write) accesses
system.cpu.dcache.overall_accesses::.cpu.data     48806587                       # number of overall (read+write) accesses
system.cpu.dcache.overall_accesses::total     48806587                       # number of overall (read+write) accesses
system.cpu.dcache.demand_miss_rate::.cpu.data     0.060971                       # miss rate for demand accesses
system.cpu.dcache.demand_miss_rate::total     0.060971                       # miss rate for demand accesses
system.cpu.dcache.overall_miss_rate::.cpu.data     0.060971                       # miss rate for overall accesses
system.cpu.dcache.overall_miss_rate::total     0.060971                       # miss rate for overall accesses
system.cpu.dcache.demand_avg_miss_latency::.cpu.data 79703.124774                       # average overall miss latency
system.cpu.dcache.demand_avg_miss_latency::total 79703.124774                       # average overall miss latency
system.cpu.dcache.overall_avg_miss_latency::.cpu.data 79702.589097                       # average overall miss latency
system.cpu.dcache.overall_avg_miss_latency::total 79702.589097                       # average overall miss latency
system.cpu.dcache.blocked_cycles::no_mshrs            0                       # number of cycles access was blocked
system.cpu.dcache.blocked_cycles::no_targets            0                       # number of cycles access was blocked
system.cpu.dcache.blocked::no_mshrs                 0                       # number of cycles access was blocked
system.cpu.dcache.blocked::no_targets               0                       # number of cycles access was blocked
system.cpu.dcache.avg_blocked_cycles::no_mshrs          nan                       # average number of cycles each access was blocked
system.cpu.dcache.avg_blocked_cycles::no_targets          nan                       # average number of cycles each access was blocked
system.cpu.dcache.writebacks::.writebacks      1486831                       # number of writebacks
system.cpu.dcache.writebacks::total           1486831                       # number of writebacks
system.cpu.dcache.demand_mshr_hits::.cpu.data      1487817                       # number of demand (read+write) MSHR hits
system.cpu.dcache.demand_mshr_hits::total      1487817                       # number of demand (read+write) MSHR hits
system.cpu.dcache.overall_mshr_hits::.cpu.data      1487817                       # number of overall MSHR hits
system.cpu.dcache.overall_mshr_hits::total      1487817                       # number of overall MSHR hits
system.cpu.dcache.demand_mshr_misses::.cpu.data      1487950                       # number of demand (read+write) MSHR misses
system.cpu.dcache.demand_mshr_misses::total      1487950                       # number of demand (read+write) MSHR misses
system.cpu.dcache.overall_mshr_misses::.cpu.data      1487966                       # number of overall MSHR misses
system.cpu.dcache.overall_mshr_misses::total      1487966                       # number of overall MSHR misses
system.cpu.dcache.demand_mshr_miss_latency::.cpu.data 121048884000                       # number of demand (read+write) MSHR miss cycles
system.cpu.dcache.demand_mshr_miss_latency::total 121048884000                       # number of demand (read+write) MSHR miss cycles
system.cpu.dcache.overall_mshr_miss_latency::.cpu.data 121050141500                       # number of overall MSHR miss cycles
system.cpu.dcache.overall_mshr_miss_latency::total 121050141500                       # number of overall MSHR miss cycles
system.cpu.dcache.demand_mshr_miss_rate::.cpu.data     0.030487                       # mshr miss rate for demand accesses
system.cpu.dcache.demand_mshr_miss_rate::total     0.030487                       # mshr miss rate for demand accesses
system.cpu.dcache.overall_mshr_miss_rate::.cpu.data     0.030487                       # mshr miss rate for overall accesses
system.cpu.dcache.overall_mshr_miss_rate::total     0.030487                       # mshr miss rate for overall accesses
system.cpu.dcache.demand_avg_mshr_miss_latency::.cpu.data 81352.790080                       # average overall mshr miss latency
system.cpu.dcache.demand_avg_mshr_miss_latency::total 81352.790080                       # average overall mshr miss latency
system.cpu.dcache.overall_avg_mshr_miss_latency::.cpu.data 81352.760413                       # average overall mshr miss latency
system.cpu.dcache.overall_avg_mshr_miss_latency::total 81352.760413                       # average overall mshr miss latency
system.cpu.dcache.replacements                1486942                       # number of replacements
system.cpu.dcache.ReadReq_hits::.cpu.data     35710772                       # number of ReadReq hits
system.cpu.dcache.ReadReq_hits::total        35710772                       # number of ReadReq hits
system.cpu.dcache.ReadReq_misses::.cpu.data          120                       # number of ReadReq misses
system.cpu.dcache.ReadReq_misses::total           120                       # number of ReadReq misses
system.cpu.dcache.ReadReq_miss_latency::.cpu.data      9011500                       # number of ReadReq miss cycles
system.cpu.dcache.ReadReq_miss_latency::total      9011500                       # number of ReadReq miss cycles
system.cpu.dcache.ReadReq_accesses::.cpu.data     35710892                       # number of ReadReq accesses(hits+misses)
system.cpu.dcache.ReadReq_accesses::total     35710892                       # number of ReadReq accesses(hits+misses)
system.cpu.dcache.ReadReq_miss_rate::.cpu.data     0.000003                       # miss rate for ReadReq accesses
system.cpu.dcache.ReadReq_miss_rate::total     0.000003                       # miss rate for ReadReq accesses
system.cpu.dcache.ReadReq_avg_miss_latency::.cpu.data 75095.833333                       # average ReadReq miss latency
system.cpu.dcache.ReadReq_avg_miss_latency::total 75095.833333                       # average ReadReq miss latency
system.cpu.dcache.ReadReq_mshr_hits::.cpu.data            6                       # number of ReadReq MSHR hits
system.cpu.dcache.ReadReq_mshr_hits::total            6                       # number of ReadReq MSHR hits
system.cpu.dcache.ReadReq_mshr_misses::.cpu.data          114                       # number of ReadReq MSHR misses
system.cpu.dcache.ReadReq_mshr_misses::total          114                       # number of ReadReq MSHR misses
system.cpu.dcache.ReadReq_mshr_miss_latency::.cpu.data      8482500                       # number of ReadReq MSHR miss cycles
system.cpu.dcache.ReadReq_mshr_miss_latency::total      8482500                       # number of ReadReq MSHR miss cycles
system.cpu.dcache.ReadReq_mshr_miss_rate::.cpu.data     0.000003                       # mshr miss rate for ReadReq accesses
system.cpu.dcache.ReadReq_mshr_miss_rate::total     0.000003                       # mshr miss rate for ReadReq accesses
system.cpu.dcache.ReadReq_avg_mshr_miss_latency::.cpu.data 74407.894737                       # average ReadReq mshr miss latency
system.cpu.dcache.ReadReq_avg_mshr_miss_latency::total 74407.894737                       # average ReadReq mshr miss latency
system.cpu.dcache.WriteReq_hits::.cpu.data     10119991                       # number of WriteReq hits
system.cpu.dcache.WriteReq_hits::total       10119991                       # number of WriteReq hits
system.cpu.dcache.WriteReq_misses::.cpu.data      2975647                       # number of WriteReq misses
system.cpu.dcache.WriteReq_misses::total      2975647                       # number of WriteReq misses
system.cpu.dcache.WriteReq_miss_latency::.cpu.data 237168917000                       # number of WriteReq miss cycles
system.cpu.dcache.WriteReq_miss_latency::total 237168917000                       # number of WriteReq miss cycles
system.cpu.dcache.WriteReq_accesses::.cpu.data     13095638                       # number of WriteReq accesses(hits+misses)
system.cpu.dcache.WriteReq_accesses::total     13095638                       # number of WriteReq accesses(hits+misses)
system.cpu.dcache.WriteReq_miss_rate::.cpu.data     0.227224                       # miss rate for WriteReq accesses
system.cpu.dcache.WriteReq_miss_rate::total     0.227224                       # miss rate for WriteReq accesses
system.cpu.dcache.WriteReq_avg_miss_latency::.cpu.data 79703.310574                       # average WriteReq miss latency
system.cpu.dcache.WriteReq_avg_miss_latency::total 79703.310574                       # average WriteReq miss latency
system.cpu.dcache.WriteReq_mshr_hits::.cpu.data      1487811                       # number of WriteReq MSHR hits
system.cpu.dcache.WriteReq_mshr_hits::total      1487811                       # number of WriteReq MSHR hits
system.cpu.dcache.WriteReq_mshr_misses::.cpu.data      1487836                       # number of WriteReq MSHR misses
system.cpu.dcache.WriteReq_mshr_misses::total      1487836                       # number of WriteReq MSHR misses
system.cpu.dcache.WriteReq_mshr_miss_latency::.cpu.data 121040401500                       # number of WriteReq MSHR miss cycles
system.cpu.dcache.WriteReq_mshr_miss_latency::total 121040401500                       # number of WriteReq MSHR miss cycles
system.cpu.dcache.WriteReq_mshr_miss_rate::.cpu.data     0.113613                       # mshr miss rate for WriteReq accesses
system.cpu.dcache.WriteReq_mshr_miss_rate::total     0.113613                       # mshr miss rate for WriteReq accesses
system.cpu.dcache.WriteReq_avg_mshr_miss_latency::.cpu.data 81353.322208                       # average WriteReq mshr miss latency
system.cpu.dcache.WriteReq_avg_mshr_miss_latency::total 81353.322208                       # average WriteReq mshr miss latency
system.cpu.dcache.SoftPFReq_hits::.cpu.data           37                       # number of SoftPFReq hits
system.cpu.dcache.SoftPFReq_hits::total            37                       # number of SoftPFReq hits
system.cpu.dcache.SoftPFReq_misses::.cpu.data           20                       # number of SoftPFReq misses
system.cpu.dcache.SoftPFReq_misses::total           20                       # number of SoftPFReq misses
system.cpu.dcache.SoftPFReq_accesses::.cpu.data           57                       # number of SoftPFReq accesses(hits+misses)
system.cpu.dcache.SoftPFReq_accesses::total           57                       # number of SoftPFReq accesses(hits+misses)
system.cpu.dcache.SoftPFReq_miss_rate::.cpu.data     0.350877                       # miss rate for SoftPFReq accesses
system.cpu.dcache.SoftPFReq_miss_rate::total     0.350877                       # miss rate for SoftPFReq accesses
system.cpu.dcache.SoftPFReq_mshr_misses::.cpu.data           16                       # number of SoftPFReq MSHR misses
system.cpu.dcache.SoftPFReq_mshr_misses::total           16                       # number of SoftPFReq MSHR misses
system.cpu.dcache.SoftPFReq_mshr_miss_latency::.cpu.data      1257500                       # number of SoftPFReq MSHR miss cycles
system.cpu.dcache.SoftPFReq_mshr_miss_latency::total      1257500                       # number of SoftPFReq MSHR miss cycles
system.cpu.dcache.SoftPFReq_mshr_miss_rate::.cpu.data     0.280702                       # mshr miss rate for SoftPFReq accesses
system.cpu.dcache.SoftPFReq_mshr_miss_rate::total     0.280702                       # mshr miss rate for SoftPFReq accesses
system.cpu.dcache.SoftPFReq_avg_mshr_miss_latency::.cpu.data 78593.750000                       # average SoftPFReq mshr miss latency
system.cpu.dcache.SoftPFReq_avg_mshr_miss_latency::total 78593.750000                       # average SoftPFReq mshr miss latency
system.cpu.dcache.LoadLockedReq_hits::.cpu.data           14                       # number of LoadLockedReq hits
system.cpu.dcache.LoadLockedReq_hits::total           14                       # number of LoadLockedReq hits
system.cpu.dcache.LoadLockedReq_accesses::.cpu.data           14                       # number of LoadLockedReq accesses(hits+misses)
system.cpu.dcache.LoadLockedReq_accesses::total           14                       # number of LoadLockedReq accesses(hits+misses)
system.cpu.dcache.StoreCondReq_hits::.cpu.data           14                       # number of StoreCondReq hits
system.cpu.dcache.StoreCondReq_hits::total           14                       # number of StoreCondReq hits
system.cpu.dcache.StoreCondReq_accesses::.cpu.data           14                       # number of StoreCondReq accesses(hits+misses)
system.cpu.dcache.StoreCondReq_accesses::total           14                       # number of StoreCondReq accesses(hits+misses)
system.cpu.dcache.tags.pwrStateResidencyTicks::UNDEFINED 174655605500                       # Cumulative time (in ticks) in various power states
system.cpu.dcache.tags.tagsinuse          1023.430433                       # Cycle average of tags in use
system.cpu.dcache.tags.total_refs            47318794                       # Total number of references to valid blocks.
system.cpu.dcache.tags.sampled_refs           1487966                       # Sample count of references to valid blocks.
system.cpu.dcache.tags.avg_refs             31.800991                       # Average number of references to valid blocks.
system.cpu.dcache.tags.warmup_cycle            176500                       # Cycle when the warmup percentage was hit.
system.cpu.dcache.tags.occ_blocks::.cpu.data  1023.430433                       # Average occupied blocks per requestor
system.cpu.dcache.tags.occ_percent::.cpu.data     0.999444                       # Average percentage of cache occupancy
system.cpu.dcache.tags.occ_percent::total     0.999444                       # Average percentage of cache occupancy
system.cpu.dcache.tags.occ_task_id_blocks::1024         1024                       # Occupied blocks per task id
system.cpu.dcache.tags.age_task_id_blocks_1024::0           84                       # Occupied blocks per task id
system.cpu.dcache.tags.age_task_id_blocks_1024::1          768                       # Occupied blocks per task id
system.cpu.dcache.tags.age_task_id_blocks_1024::2          170                       # Occupied blocks per task id
system.cpu.dcache.tags.age_task_id_blocks_1024::4            2                       # Occupied blocks per task id
system.cpu.dcache.tags.occ_task_id_percent::1024            1                       # Percentage of cache occupancy per task id
system.cpu.dcache.tags.tag_accesses          99101196                       # Number of tag accesses
system.cpu.dcache.tags.data_accesses         99101196                       # Number of data accesses
system.cpu.itb.walker.pwrStateResidencyTicks::UNDEFINED 174655605500                       # Cumulative time (in ticks) in various power states
system.cpu.itb.stage2_mmu.stage2_tlb.walker.pwrStateResidencyTicks::UNDEFINED 174655605500                       # Cumulative time (in ticks) in various power states

---------- End Simulation Statistics   ----------
