
---------- Begin Simulation Statistics ----------
final_tick                                65066314500                       # Number of ticks from beginning of simulation (restored from checkpoints and never reset)
host_inst_rate                                 246905                       # Simulator instruction rate (inst/s)
host_mem_usage                                 690588                       # Number of bytes of host memory used
host_op_rate                                   270193                       # Simulator op (including micro ops) rate (op/s)
host_seconds                                   405.01                       # Real time elapsed on the host
host_tick_rate                              160652016                       # Simulator tick rate (ticks/s)
sim_freq                                 1000000000000                       # Frequency of simulated ticks
sim_insts                                   100000000                       # Number of instructions simulated
sim_ops                                     109431930                       # Number of ops (including micro ops) simulated
sim_seconds                                  0.065066                       # Number of seconds simulated
sim_ticks                                 65066314500                       # Number of ticks simulated
system.cpu.branchPred.BTBCorrect                    0                       # Number of correct BTB predictions (this stat may not work properly.
system.cpu.branchPred.BTBHitPct             88.091729                       # BTB Hit Percentage
system.cpu.branchPred.BTBHits                 8691071                       # Number of BTB hits
system.cpu.branchPred.BTBLookups              9865933                       # Number of BTB lookups
system.cpu.branchPred.RASInCorrect                345                       # Number of incorrect RAS predictions.
system.cpu.branchPred.condIncorrect            142503                       # Number of conditional branches incorrect
system.cpu.branchPred.condPredicted          16333258                       # Number of conditional branches predicted
system.cpu.branchPred.indirectHits             300025                       # Number of indirect target hits.
system.cpu.branchPred.indirectLookups          434103                       # Number of indirect predictor lookups.
system.cpu.branchPred.indirectMisses           134078                       # Number of indirect misses.
system.cpu.branchPred.lookups                20395718                       # Number of BP lookups
system.cpu.branchPred.usedRAS                 1050669                       # Number of times the RAS was used to get a target.
system.cpu.branchPredindirectMispredicted         1038                       # Number of mispredicted indirect branches.
system.cpu.committedInsts                   100000000                       # Number of instructions committed
system.cpu.committedOps                     109431930                       # Number of ops (including micro ops) committed
system.cpu.cpi                               1.301326                       # CPI: cycles per instruction
system.cpu.discardedOps                        690570                       # Number of ops (including micro ops) which were discarded before commit
system.cpu.dtb.accesses                             0                       # DTB accesses
system.cpu.dtb.align_faults                         0                       # Number of TLB faults due to alignment restrictions
system.cpu.dtb.domain_faults                        0                       # Number of TLB faults due to domain restrictions
system.cpu.dtb.flush_entries                        0                       # Number of entries that have been flushed from TLB
system.cpu.dtb.flush_tlb                            0                       # Number of times complete TLB was flushed
system.cpu.dtb.flush_tlb_asid                       0                       # Number of times TLB was flushed by ASID
system.cpu.dtb.flush_tlb_mva                        0                       # Number of times TLB was flushed by MVA
system.cpu.dtb.flush_tlb_mva_asid                   0                       # Number of times TLB was flushed by MVA & ASID
system.cpu.dtb.hits                                 0                       # DTB hits
system.cpu.dtb.inst_accesses                        0                       # ITB inst accesses
system.cpu.dtb.inst_hits                            0                       # ITB inst hits
system.cpu.dtb.inst_misses                          0                       # ITB inst misses
system.cpu.dtb.misses                               0                       # DTB misses
system.cpu.dtb.perms_faults                         0                       # Number of TLB faults due to permissions restrictions
system.cpu.dtb.prefetch_faults                      0                       # Number of TLB faults due to prefetch
system.cpu.dtb.read_accesses                        0                       # DTB read accesses
system.cpu.dtb.read_hits                            0                       # DTB read hits
system.cpu.dtb.read_misses                          0                       # DTB read misses
system.cpu.dtb.stage2_mmu.stage2_tlb.accesses            0                       # DTB accesses
system.cpu.dtb.stage2_mmu.stage2_tlb.align_faults            0                       # Number of TLB faults due to alignment restrictions
system.cpu.dtb.stage2_mmu.stage2_tlb.domain_faults            0                       # Number of TLB faults due to domain restrictions
system.cpu.dtb.stage2_mmu.stage2_tlb.flush_entries            0                       # Number of entries that have been flushed from TLB
system.cpu.dtb.stage2_mmu.stage2_tlb.flush_tlb            0                       # Number of times complete TLB was flushed
system.cpu.dtb.stage2_mmu.stage2_tlb.flush_tlb_asid            0                       # Number of times TLB was flushed by ASID
system.cpu.dtb.stage2_mmu.stage2_tlb.flush_tlb_mva            0                       # Number of times TLB was flushed by MVA
system.cpu.dtb.stage2_mmu.stage2_tlb.flush_tlb_mva_asid            0                       # Number of times TLB was flushed by MVA & ASID
system.cpu.dtb.stage2_mmu.stage2_tlb.hits            0                       # DTB hits
system.cpu.dtb.stage2_mmu.stage2_tlb.inst_accesses            0                       # ITB inst accesses
system.cpu.dtb.stage2_mmu.stage2_tlb.inst_hits            0                       # ITB inst hits
system.cpu.dtb.stage2_mmu.stage2_tlb.inst_misses            0                       # ITB inst misses
system.cpu.dtb.stage2_mmu.stage2_tlb.misses            0                       # DTB misses
system.cpu.dtb.stage2_mmu.stage2_tlb.perms_faults            0                       # Number of TLB faults due to permissions restrictions
system.cpu.dtb.stage2_mmu.stage2_tlb.prefetch_faults            0                       # Number of TLB faults due to prefetch
system.cpu.dtb.stage2_mmu.stage2_tlb.read_accesses            0                       # DTB read accesses
system.cpu.dtb.stage2_mmu.stage2_tlb.read_hits            0                       # DTB read hits
system.cpu.dtb.stage2_mmu.stage2_tlb.read_misses            0                       # DTB read misses
system.cpu.dtb.stage2_mmu.stage2_tlb.walker.walkRequestOrigin_Requested::Data            0                       # Table walker requests started/completed, data/inst
system.cpu.dtb.stage2_mmu.stage2_tlb.walker.walkRequestOrigin_Requested::Inst            0                       # Table walker requests started/completed, data/inst
system.cpu.dtb.stage2_mmu.stage2_tlb.walker.walkRequestOrigin_Requested::total            0                       # Table walker requests started/completed, data/inst
system.cpu.dtb.stage2_mmu.stage2_tlb.walker.walkRequestOrigin_Completed::Data            0                       # Table walker requests started/completed, data/inst
system.cpu.dtb.stage2_mmu.stage2_tlb.walker.walkRequestOrigin_Completed::Inst            0                       # Table walker requests started/completed, data/inst
system.cpu.dtb.stage2_mmu.stage2_tlb.walker.walkRequestOrigin_Completed::total            0                       # Table walker requests started/completed, data/inst
system.cpu.dtb.stage2_mmu.stage2_tlb.walker.walkRequestOrigin::total            0                       # Table walker requests started/completed, data/inst
system.cpu.dtb.stage2_mmu.stage2_tlb.walker.walks            0                       # Table walker walks requested
system.cpu.dtb.stage2_mmu.stage2_tlb.write_accesses            0                       # DTB write accesses
system.cpu.dtb.stage2_mmu.stage2_tlb.write_hits            0                       # DTB write hits
system.cpu.dtb.stage2_mmu.stage2_tlb.write_misses            0                       # DTB write misses
system.cpu.dtb.walker.walkRequestOrigin_Requested::Data            0                       # Table walker requests started/completed, data/inst
system.cpu.dtb.walker.walkRequestOrigin_Requested::Inst            0                       # Table walker requests started/completed, data/inst
system.cpu.dtb.walker.walkRequestOrigin_Requested::total            0                       # Table walker requests started/completed, data/inst
system.cpu.dtb.walker.walkRequestOrigin_Completed::Data            0                       # Table walker requests started/completed, data/inst
system.cpu.dtb.walker.walkRequestOrigin_Completed::Inst            0                       # Table walker requests started/completed, data/inst
system.cpu.dtb.walker.walkRequestOrigin_Completed::total            0                       # Table walker requests started/completed, data/inst
system.cpu.dtb.walker.walkRequestOrigin::total            0                       # Table walker requests started/completed, data/inst
system.cpu.dtb.walker.walks                         0                       # Table walker walks requested
system.cpu.dtb.write_accesses                       0                       # DTB write accesses
system.cpu.dtb.write_hits                           0                       # DTB write hits
system.cpu.dtb.write_misses                         0                       # DTB write misses
system.cpu.fetch2.amo_instructions                  0                       # Number of memory atomic instructions successfully decoded
system.cpu.fetch2.fp_instructions                   0                       # Number of floating point instructions successfully decoded
system.cpu.fetch2.int_instructions           49584756                       # Number of integer instructions successfully decoded
system.cpu.fetch2.load_instructions          17138067                       # Number of memory load instructions successfully decoded
system.cpu.fetch2.store_instructions          9893363                       # Number of memory store instructions successfully decoded
system.cpu.fetch2.vec_instructions                  0                       # Number of SIMD instructions successfully decoded
system.cpu.idleCycles                        13972159                       # Total number of cycles that the object has spent stopped
system.cpu.ipc                               0.768447                       # IPC: instructions per cycle
system.cpu.itb.accesses                             0                       # DTB accesses
system.cpu.itb.align_faults                         0                       # Number of TLB faults due to alignment restrictions
system.cpu.itb.domain_faults                        0                       # Number of TLB faults due to domain restrictions
system.cpu.itb.flush_entries                        0                       # Number of entries that have been flushed from TLB
system.cpu.itb.flush_tlb                            0                       # Number of times complete TLB was flushed
system.cpu.itb.flush_tlb_asid                       0                       # Number of times TLB was flushed by ASID
system.cpu.itb.flush_tlb_mva                        0                       # Number of times TLB was flushed by MVA
system.cpu.itb.flush_tlb_mva_asid                   0                       # Number of times TLB was flushed by MVA & ASID
system.cpu.itb.hits                                 0                       # DTB hits
system.cpu.itb.inst_accesses                        0                       # ITB inst accesses
system.cpu.itb.inst_hits                            0                       # ITB inst hits
system.cpu.itb.inst_misses                          0                       # ITB inst misses
system.cpu.itb.misses                               0                       # DTB misses
system.cpu.itb.perms_faults                         0                       # Number of TLB faults due to permissions restrictions
system.cpu.itb.prefetch_faults                      0                       # Number of TLB faults due to prefetch
system.cpu.itb.read_accesses                        0                       # DTB read accesses
system.cpu.itb.read_hits                            0                       # DTB read hits
system.cpu.itb.read_misses                          0                       # DTB read misses
system.cpu.itb.stage2_mmu.stage2_tlb.accesses            0                       # DTB accesses
system.cpu.itb.stage2_mmu.stage2_tlb.align_faults            0                       # Number of TLB faults due to alignment restrictions
system.cpu.itb.stage2_mmu.stage2_tlb.domain_faults            0                       # Number of TLB faults due to domain restrictions
system.cpu.itb.stage2_mmu.stage2_tlb.flush_entries            0                       # Number of entries that have been flushed from TLB
system.cpu.itb.stage2_mmu.stage2_tlb.flush_tlb            0                       # Number of times complete TLB was flushed
system.cpu.itb.stage2_mmu.stage2_tlb.flush_tlb_asid            0                       # Number of times TLB was flushed by ASID
system.cpu.itb.stage2_mmu.stage2_tlb.flush_tlb_mva            0                       # Number of times TLB was flushed by MVA
system.cpu.itb.stage2_mmu.stage2_tlb.flush_tlb_mva_asid            0                       # Number of times TLB was flushed by MVA & ASID
system.cpu.itb.stage2_mmu.stage2_tlb.hits            0                       # DTB hits
system.cpu.itb.stage2_mmu.stage2_tlb.inst_accesses            0                       # ITB inst accesses
system.cpu.itb.stage2_mmu.stage2_tlb.inst_hits            0                       # ITB inst hits
system.cpu.itb.stage2_mmu.stage2_tlb.inst_misses            0                       # ITB inst misses
system.cpu.itb.stage2_mmu.stage2_tlb.misses            0                       # DTB misses
system.cpu.itb.stage2_mmu.stage2_tlb.perms_faults            0                       # Number of TLB faults due to permissions restrictions
system.cpu.itb.stage2_mmu.stage2_tlb.prefetch_faults            0                       # Number of TLB faults due to prefetch
system.cpu.itb.stage2_mmu.stage2_tlb.read_accesses            0                       # DTB read accesses
system.cpu.itb.stage2_mmu.stage2_tlb.read_hits            0                       # DTB read hits
system.cpu.itb.stage2_mmu.stage2_tlb.read_misses            0                       # DTB read misses
system.cpu.itb.stage2_mmu.stage2_tlb.walker.walkRequestOrigin_Requested::Data            0                       # Table walker requests started/completed, data/inst
system.cpu.itb.stage2_mmu.stage2_tlb.walker.walkRequestOrigin_Requested::Inst            0                       # Table walker requests started/completed, data/inst
system.cpu.itb.stage2_mmu.stage2_tlb.walker.walkRequestOrigin_Requested::total            0                       # Table walker requests started/completed, data/inst
system.cpu.itb.stage2_mmu.stage2_tlb.walker.walkRequestOrigin_Completed::Data            0                       # Table walker requests started/completed, data/inst
system.cpu.itb.stage2_mmu.stage2_tlb.walker.walkRequestOrigin_Completed::Inst            0                       # Table walker requests started/completed, data/inst
system.cpu.itb.stage2_mmu.stage2_tlb.walker.walkRequestOrigin_Completed::total            0                       # Table walker requests started/completed, data/inst
system.cpu.itb.stage2_mmu.stage2_tlb.walker.walkRequestOrigin::total            0                       # Table walker requests started/completed, data/inst
system.cpu.itb.stage2_mmu.stage2_tlb.walker.walks            0                       # Table walker walks requested
system.cpu.itb.stage2_mmu.stage2_tlb.write_accesses            0                       # DTB write accesses
system.cpu.itb.stage2_mmu.stage2_tlb.write_hits            0                       # DTB write hits
system.cpu.itb.stage2_mmu.stage2_tlb.write_misses            0                       # DTB write misses
system.cpu.itb.walker.walkRequestOrigin_Requested::Data            0                       # Table walker requests started/completed, data/inst
system.cpu.itb.walker.walkRequestOrigin_Requested::Inst            0                       # Table walker requests started/completed, data/inst
system.cpu.itb.walker.walkRequestOrigin_Requested::total            0                       # Table walker requests started/completed, data/inst
system.cpu.itb.walker.walkRequestOrigin_Completed::Data            0                       # Table walker requests started/completed, data/inst
system.cpu.itb.walker.walkRequestOrigin_Completed::Inst            0                       # Table walker requests started/completed, data/inst
system.cpu.itb.walker.walkRequestOrigin_Completed::total            0                       # Table walker requests started/completed, data/inst
system.cpu.itb.walker.walkRequestOrigin::total            0                       # Table walker requests started/completed, data/inst
system.cpu.itb.walker.walks                         0                       # Table walker walks requested
system.cpu.itb.write_accesses                       0                       # DTB write accesses
system.cpu.itb.write_hits                           0                       # DTB write hits
system.cpu.itb.write_misses                         0                       # DTB write misses
system.cpu.numCycles                        130132629                       # number of cpu cycles simulated
system.cpu.numFetchSuspends                         0                       # Number of times Execute suspended instruction fetching
system.cpu.numWorkItemsCompleted                    0                       # number of work items this cpu completed
system.cpu.numWorkItemsStarted                      0                       # number of work items this cpu started
system.cpu.op_class_0::No_OpClass                   0      0.00%      0.00% # Class of committed instruction
system.cpu.op_class_0::IntAlu                72955325     66.67%     66.67% # Class of committed instruction
system.cpu.op_class_0::IntMult                 568365      0.52%     67.19% # Class of committed instruction
system.cpu.op_class_0::IntDiv                       0      0.00%     67.19% # Class of committed instruction
system.cpu.op_class_0::FloatAdd                     0      0.00%     67.19% # Class of committed instruction
system.cpu.op_class_0::FloatCmp                     0      0.00%     67.19% # Class of committed instruction
system.cpu.op_class_0::FloatCvt                     0      0.00%     67.19% # Class of committed instruction
system.cpu.op_class_0::FloatMult                    0      0.00%     67.19% # Class of committed instruction
system.cpu.op_class_0::FloatMultAcc                 0      0.00%     67.19% # Class of committed instruction
system.cpu.op_class_0::FloatDiv                     0      0.00%     67.19% # Class of committed instruction
system.cpu.op_class_0::FloatMisc                    0      0.00%     67.19% # Class of committed instruction
system.cpu.op_class_0::FloatSqrt                    0      0.00%     67.19% # Class of committed instruction
system.cpu.op_class_0::SimdAdd                 241252      0.22%     67.41% # Class of committed instruction
system.cpu.op_class_0::SimdAddAcc                   0      0.00%     67.41% # Class of committed instruction
system.cpu.op_class_0::SimdAlu                 154720      0.14%     67.55% # Class of committed instruction
system.cpu.op_class_0::SimdCmp                 120626      0.11%     67.66% # Class of committed instruction
system.cpu.op_class_0::SimdCvt                      0      0.00%     67.66% # Class of committed instruction
system.cpu.op_class_0::SimdMisc                 44544      0.04%     67.70% # Class of committed instruction
system.cpu.op_class_0::SimdMult                     0      0.00%     67.70% # Class of committed instruction
system.cpu.op_class_0::SimdMultAcc                  0      0.00%     67.70% # Class of committed instruction
system.cpu.op_class_0::SimdShift                    0      0.00%     67.70% # Class of committed instruction
system.cpu.op_class_0::SimdShiftAcc                 0      0.00%     67.70% # Class of committed instruction
system.cpu.op_class_0::SimdDiv                      0      0.00%     67.70% # Class of committed instruction
system.cpu.op_class_0::SimdSqrt                     0      0.00%     67.70% # Class of committed instruction
system.cpu.op_class_0::SimdFloatAdd                 0      0.00%     67.70% # Class of committed instruction
system.cpu.op_class_0::SimdFloatAlu                 0      0.00%     67.70% # Class of committed instruction
system.cpu.op_class_0::SimdFloatCmp                 0      0.00%     67.70% # Class of committed instruction
system.cpu.op_class_0::SimdFloatCvt                 0      0.00%     67.70% # Class of committed instruction
system.cpu.op_class_0::SimdFloatDiv                 0      0.00%     67.70% # Class of committed instruction
system.cpu.op_class_0::SimdFloatMisc           166465      0.15%     67.85% # Class of committed instruction
system.cpu.op_class_0::SimdFloatMult                0      0.00%     67.85% # Class of committed instruction
system.cpu.op_class_0::SimdFloatMultAcc             0      0.00%     67.85% # Class of committed instruction
system.cpu.op_class_0::SimdFloatSqrt                0      0.00%     67.85% # Class of committed instruction
system.cpu.op_class_0::SimdReduceAdd                0      0.00%     67.85% # Class of committed instruction
system.cpu.op_class_0::SimdReduceAlu                0      0.00%     67.85% # Class of committed instruction
system.cpu.op_class_0::SimdReduceCmp                0      0.00%     67.85% # Class of committed instruction
system.cpu.op_class_0::SimdFloatReduceAdd            0      0.00%     67.85% # Class of committed instruction
system.cpu.op_class_0::SimdFloatReduceCmp            0      0.00%     67.85% # Class of committed instruction
system.cpu.op_class_0::SimdAes                      0      0.00%     67.85% # Class of committed instruction
system.cpu.op_class_0::SimdAesMix                   0      0.00%     67.85% # Class of committed instruction
system.cpu.op_class_0::SimdSha1Hash                 0      0.00%     67.85% # Class of committed instruction
system.cpu.op_class_0::SimdSha1Hash2                0      0.00%     67.85% # Class of committed instruction
system.cpu.op_class_0::SimdSha256Hash               0      0.00%     67.85% # Class of committed instruction
system.cpu.op_class_0::SimdSha256Hash2              0      0.00%     67.85% # Class of committed instruction
system.cpu.op_class_0::SimdShaSigma2                0      0.00%     67.85% # Class of committed instruction
system.cpu.op_class_0::SimdShaSigma3                0      0.00%     67.85% # Class of committed instruction
system.cpu.op_class_0::SimdPredAlu                  0      0.00%     67.85% # Class of committed instruction
system.cpu.op_class_0::MemRead               20646456     18.87%     86.72% # Class of committed instruction
system.cpu.op_class_0::MemWrite              14534177     13.28%    100.00% # Class of committed instruction
system.cpu.op_class_0::FloatMemRead                 0      0.00%    100.00% # Class of committed instruction
system.cpu.op_class_0::FloatMemWrite                0      0.00%    100.00% # Class of committed instruction
system.cpu.op_class_0::IprAccess                    0      0.00%    100.00% # Class of committed instruction
system.cpu.op_class_0::InstPrefetch                 0      0.00%    100.00% # Class of committed instruction
system.cpu.op_class_0::total                109431930                       # Class of committed instruction
system.cpu.tickCycles                       116160470                       # Number of cycles that the object actually ticked
system.cpu.workload.numSyscalls                    86                       # Number of system calls
system.membus.snoop_filter.hit_multi_requests            0                       # Number of requests hitting in the snoop filter with multiple (>1) holders of the requested data.
system.membus.snoop_filter.hit_multi_snoops            0                       # Number of snoops hitting in the snoop filter with multiple (>1) holders of the requested data.
system.membus.snoop_filter.hit_single_requests        14037                       # Number of requests hitting in the snoop filter with a single holder of the requested data.
system.membus.snoop_filter.hit_single_snoops            0                       # Number of snoops hitting in the snoop filter with a single holder of the requested data.
system.membus.snoop_filter.tot_requests         56713                       # Total number of requests made to the snoop filter.
system.membus.snoop_filter.tot_snoops               0                       # Total number of snoops made to the snoop filter.
system.tol2bus.snoop_filter.hit_multi_requests           29                       # Number of requests hitting in the snoop filter with multiple (>1) holders of the requested data.
system.tol2bus.snoop_filter.hit_multi_snoops            4                       # Number of snoops hitting in the snoop filter with multiple (>1) holders of the requested data.
system.tol2bus.snoop_filter.hit_single_requests       722724                       # Number of requests hitting in the snoop filter with a single holder of the requested data.
system.tol2bus.snoop_filter.hit_single_snoops         1995                       # Number of snoops hitting in the snoop filter with a single holder of the requested data.
system.tol2bus.snoop_filter.tot_requests      1446862                       # Total number of requests made to the snoop filter.
system.tol2bus.snoop_filter.tot_snoops           1999                       # Total number of snoops made to the snoop filter.
system.membus.pwrStateResidencyTicks::UNDEFINED  65066314500                       # Cumulative time (in ticks) in various power states
system.membus.trans_dist::ReadResp               3867                       # Transaction distribution
system.membus.trans_dist::WritebackDirty        13668                       # Transaction distribution
system.membus.trans_dist::CleanEvict              366                       # Transaction distribution
system.membus.trans_dist::ReadExReq             38812                       # Transaction distribution
system.membus.trans_dist::ReadExResp            38812                       # Transaction distribution
system.membus.trans_dist::ReadSharedReq          3867                       # Transaction distribution
system.membus.pkt_count_system.l2.mem_side::system.mem_ctrls.port        99392                       # Packet count per connected master and slave (bytes)
system.membus.pkt_count::total                  99392                       # Packet count per connected master and slave (bytes)
system.membus.pkt_size_system.l2.mem_side::system.mem_ctrls.port      3606208                       # Cumulative packet size per connected master and slave (bytes)
system.membus.pkt_size::total                 3606208                       # Cumulative packet size per connected master and slave (bytes)
system.membus.snoops                                0                       # Total snoops (count)
system.membus.snoopTraffic                          0                       # Total snoop traffic (bytes)
system.membus.snoop_fanout::samples             42679                       # Request fanout histogram
system.membus.snoop_fanout::mean                    0                       # Request fanout histogram
system.membus.snoop_fanout::stdev                   0                       # Request fanout histogram
system.membus.snoop_fanout::underflows              0      0.00%      0.00% # Request fanout histogram
system.membus.snoop_fanout::0                   42679    100.00%    100.00% # Request fanout histogram
system.membus.snoop_fanout::1                       0      0.00%    100.00% # Request fanout histogram
system.membus.snoop_fanout::overflows               0      0.00%    100.00% # Request fanout histogram
system.membus.snoop_fanout::min_value               0                       # Request fanout histogram
system.membus.snoop_fanout::max_value               0                       # Request fanout histogram
system.membus.snoop_fanout::total               42679                       # Request fanout histogram
system.membus.respLayer1.occupancy          228096000                       # Layer occupancy (ticks)
system.membus.respLayer1.utilization              0.4                       # Layer utilization (%)
system.membus.reqLayer0.occupancy           120903500                       # Layer occupancy (ticks)
system.membus.reqLayer0.utilization               0.2                       # Layer utilization (%)
system.tol2bus.pwrStateResidencyTicks::UNDEFINED  65066314500                       # Cumulative time (in ticks) in various power states
system.tol2bus.trans_dist::ReadResp            685206                       # Transaction distribution
system.tol2bus.trans_dist::WritebackDirty        64084                       # Transaction distribution
system.tol2bus.trans_dist::WritebackClean       668513                       # Transaction distribution
system.tol2bus.trans_dist::CleanEvict            5984                       # Transaction distribution
system.tol2bus.trans_dist::ReadExReq            38936                       # Transaction distribution
system.tol2bus.trans_dist::ReadExResp           38936                       # Transaction distribution
system.tol2bus.trans_dist::ReadCleanReq        668911                       # Transaction distribution
system.tol2bus.trans_dist::ReadSharedReq        16295                       # Transaction distribution
system.tol2bus.pkt_count_system.cpu.icache.mem_side::system.l2.cpu_side      2006335                       # Packet count per connected master and slave (bytes)
system.tol2bus.pkt_count_system.cpu.dcache.mem_side::system.l2.cpu_side       164669                       # Packet count per connected master and slave (bytes)
system.tol2bus.pkt_count::total               2171004                       # Packet count per connected master and slave (bytes)
system.tol2bus.pkt_size_system.cpu.icache.mem_side::system.l2.cpu_side     85595136                       # Cumulative packet size per connected master and slave (bytes)
system.tol2bus.pkt_size_system.cpu.dcache.mem_side::system.l2.cpu_side      6761408                       # Cumulative packet size per connected master and slave (bytes)
system.tol2bus.pkt_size::total               92356544                       # Cumulative packet size per connected master and slave (bytes)
system.tol2bus.snoops                           15861                       # Total snoops (count)
system.tol2bus.snoopTraffic                    874752                       # Total snoop traffic (bytes)
system.tol2bus.snoop_fanout::samples           740003                       # Request fanout histogram
system.tol2bus.snoop_fanout::mean            0.002751                       # Request fanout histogram
system.tol2bus.snoop_fanout::stdev           0.052484                       # Request fanout histogram
system.tol2bus.snoop_fanout::underflows             0      0.00%      0.00% # Request fanout histogram
system.tol2bus.snoop_fanout::0                 737971     99.73%     99.73% # Request fanout histogram
system.tol2bus.snoop_fanout::1                   2028      0.27%    100.00% # Request fanout histogram
system.tol2bus.snoop_fanout::2                      4      0.00%    100.00% # Request fanout histogram
system.tol2bus.snoop_fanout::overflows              0      0.00%    100.00% # Request fanout histogram
system.tol2bus.snoop_fanout::min_value              0                       # Request fanout histogram
system.tol2bus.snoop_fanout::max_value              2                       # Request fanout histogram
system.tol2bus.snoop_fanout::total             740003                       # Request fanout histogram
system.tol2bus.reqLayer0.occupancy         1442360000                       # Layer occupancy (ticks)
system.tol2bus.reqLayer0.utilization              2.2                       # Layer utilization (%)
system.tol2bus.respLayer1.occupancy          82848995                       # Layer occupancy (ticks)
system.tol2bus.respLayer1.utilization             0.1                       # Layer utilization (%)
system.tol2bus.respLayer0.occupancy        1003366999                       # Layer occupancy (ticks)
system.tol2bus.respLayer0.utilization             1.5                       # Layer utilization (%)
system.voltage_domain.voltage                       1                       # Voltage in Volts
system.clk_domain.clock                          1000                       # Clock period in ticks
system.l2.pwrStateResidencyTicks::UNDEFINED  65066314500                       # Cumulative time (in ticks) in various power states
system.l2.demand_hits::.cpu.inst               668384                       # number of demand (read+write) hits
system.l2.demand_hits::.cpu.data                13073                       # number of demand (read+write) hits
system.l2.demand_hits::total                   681457                       # number of demand (read+write) hits
system.l2.overall_hits::.cpu.inst              668384                       # number of overall hits
system.l2.overall_hits::.cpu.data               13073                       # number of overall hits
system.l2.overall_hits::total                  681457                       # number of overall hits
system.l2.demand_misses::.cpu.inst                527                       # number of demand (read+write) misses
system.l2.demand_misses::.cpu.data              42158                       # number of demand (read+write) misses
system.l2.demand_misses::total                  42685                       # number of demand (read+write) misses
system.l2.overall_misses::.cpu.inst               527                       # number of overall misses
system.l2.overall_misses::.cpu.data             42158                       # number of overall misses
system.l2.overall_misses::total                 42685                       # number of overall misses
system.l2.demand_miss_latency::.cpu.inst     40652000                       # number of demand (read+write) miss cycles
system.l2.demand_miss_latency::.cpu.data   3465945000                       # number of demand (read+write) miss cycles
system.l2.demand_miss_latency::total       3506597000                       # number of demand (read+write) miss cycles
system.l2.overall_miss_latency::.cpu.inst     40652000                       # number of overall miss cycles
system.l2.overall_miss_latency::.cpu.data   3465945000                       # number of overall miss cycles
system.l2.overall_miss_latency::total      3506597000                       # number of overall miss cycles
system.l2.demand_accesses::.cpu.inst           668911                       # number of demand (read+write) accesses
system.l2.demand_accesses::.cpu.data            55231                       # number of demand (read+write) accesses
system.l2.demand_accesses::total               724142                       # number of demand (read+write) accesses
system.l2.overall_accesses::.cpu.inst          668911                       # number of overall (read+write) accesses
system.l2.overall_accesses::.cpu.data           55231                       # number of overall (read+write) accesses
system.l2.overall_accesses::total              724142                       # number of overall (read+write) accesses
system.l2.demand_miss_rate::.cpu.inst        0.000788                       # miss rate for demand accesses
system.l2.demand_miss_rate::.cpu.data        0.763303                       # miss rate for demand accesses
system.l2.demand_miss_rate::total            0.058946                       # miss rate for demand accesses
system.l2.overall_miss_rate::.cpu.inst       0.000788                       # miss rate for overall accesses
system.l2.overall_miss_rate::.cpu.data       0.763303                       # miss rate for overall accesses
system.l2.overall_miss_rate::total           0.058946                       # miss rate for overall accesses
system.l2.demand_avg_miss_latency::.cpu.inst 77138.519924                       # average overall miss latency
system.l2.demand_avg_miss_latency::.cpu.data 82213.221690                       # average overall miss latency
system.l2.demand_avg_miss_latency::total 82150.568115                       # average overall miss latency
system.l2.overall_avg_miss_latency::.cpu.inst 77138.519924                       # average overall miss latency
system.l2.overall_avg_miss_latency::.cpu.data 82213.221690                       # average overall miss latency
system.l2.overall_avg_miss_latency::total 82150.568115                       # average overall miss latency
system.l2.blocked_cycles::no_mshrs                  0                       # number of cycles access was blocked
system.l2.blocked_cycles::no_targets                0                       # number of cycles access was blocked
system.l2.blocked::no_mshrs                         0                       # number of cycles access was blocked
system.l2.blocked::no_targets                       0                       # number of cycles access was blocked
system.l2.avg_blocked_cycles::no_mshrs            nan                       # average number of cycles each access was blocked
system.l2.avg_blocked_cycles::no_targets          nan                       # average number of cycles each access was blocked
system.l2.writebacks::.writebacks               13668                       # number of writebacks
system.l2.writebacks::total                     13668                       # number of writebacks
system.l2.demand_mshr_hits::.cpu.inst               1                       # number of demand (read+write) MSHR hits
system.l2.demand_mshr_hits::.cpu.data               5                       # number of demand (read+write) MSHR hits
system.l2.demand_mshr_hits::total                   6                       # number of demand (read+write) MSHR hits
system.l2.overall_mshr_hits::.cpu.inst              1                       # number of overall MSHR hits
system.l2.overall_mshr_hits::.cpu.data              5                       # number of overall MSHR hits
system.l2.overall_mshr_hits::total                  6                       # number of overall MSHR hits
system.l2.demand_mshr_misses::.cpu.inst           526                       # number of demand (read+write) MSHR misses
system.l2.demand_mshr_misses::.cpu.data         42153                       # number of demand (read+write) MSHR misses
system.l2.demand_mshr_misses::total             42679                       # number of demand (read+write) MSHR misses
system.l2.overall_mshr_misses::.cpu.inst          526                       # number of overall MSHR misses
system.l2.overall_mshr_misses::.cpu.data        42153                       # number of overall MSHR misses
system.l2.overall_mshr_misses::total            42679                       # number of overall MSHR misses
system.l2.demand_mshr_miss_latency::.cpu.inst     35327500                       # number of demand (read+write) MSHR miss cycles
system.l2.demand_mshr_miss_latency::.cpu.data   3044088000                       # number of demand (read+write) MSHR miss cycles
system.l2.demand_mshr_miss_latency::total   3079415500                       # number of demand (read+write) MSHR miss cycles
system.l2.overall_mshr_miss_latency::.cpu.inst     35327500                       # number of overall MSHR miss cycles
system.l2.overall_mshr_miss_latency::.cpu.data   3044088000                       # number of overall MSHR miss cycles
system.l2.overall_mshr_miss_latency::total   3079415500                       # number of overall MSHR miss cycles
system.l2.demand_mshr_miss_rate::.cpu.inst     0.000786                       # mshr miss rate for demand accesses
system.l2.demand_mshr_miss_rate::.cpu.data     0.763213                       # mshr miss rate for demand accesses
system.l2.demand_mshr_miss_rate::total       0.058937                       # mshr miss rate for demand accesses
system.l2.overall_mshr_miss_rate::.cpu.inst     0.000786                       # mshr miss rate for overall accesses
system.l2.overall_mshr_miss_rate::.cpu.data     0.763213                       # mshr miss rate for overall accesses
system.l2.overall_mshr_miss_rate::total      0.058937                       # mshr miss rate for overall accesses
system.l2.demand_avg_mshr_miss_latency::.cpu.inst 67162.547529                       # average overall mshr miss latency
system.l2.demand_avg_mshr_miss_latency::.cpu.data 72215.215999                       # average overall mshr miss latency
system.l2.demand_avg_mshr_miss_latency::total 72152.944071                       # average overall mshr miss latency
system.l2.overall_avg_mshr_miss_latency::.cpu.inst 67162.547529                       # average overall mshr miss latency
system.l2.overall_avg_mshr_miss_latency::.cpu.data 72215.215999                       # average overall mshr miss latency
system.l2.overall_avg_mshr_miss_latency::total 72152.944071                       # average overall mshr miss latency
system.l2.replacements                          15861                       # number of replacements
system.l2.WritebackDirty_hits::.writebacks        50416                       # number of WritebackDirty hits
system.l2.WritebackDirty_hits::total            50416                       # number of WritebackDirty hits
system.l2.WritebackDirty_accesses::.writebacks        50416                       # number of WritebackDirty accesses(hits+misses)
system.l2.WritebackDirty_accesses::total        50416                       # number of WritebackDirty accesses(hits+misses)
system.l2.WritebackClean_hits::.writebacks       668502                       # number of WritebackClean hits
system.l2.WritebackClean_hits::total           668502                       # number of WritebackClean hits
system.l2.WritebackClean_accesses::.writebacks       668502                       # number of WritebackClean accesses(hits+misses)
system.l2.WritebackClean_accesses::total       668502                       # number of WritebackClean accesses(hits+misses)
system.l2.CleanEvict_mshr_misses::.writebacks          172                       # number of CleanEvict MSHR misses
system.l2.CleanEvict_mshr_misses::total           172                       # number of CleanEvict MSHR misses
system.l2.CleanEvict_mshr_miss_rate::.writebacks          inf                       # mshr miss rate for CleanEvict accesses
system.l2.CleanEvict_mshr_miss_rate::total          inf                       # mshr miss rate for CleanEvict accesses
system.l2.ReadExReq_hits::.cpu.data               124                       # number of ReadExReq hits
system.l2.ReadExReq_hits::total                   124                       # number of ReadExReq hits
system.l2.ReadExReq_misses::.cpu.data           38812                       # number of ReadExReq misses
system.l2.ReadExReq_misses::total               38812                       # number of ReadExReq misses
system.l2.ReadExReq_miss_latency::.cpu.data   3160627000                       # number of ReadExReq miss cycles
system.l2.ReadExReq_miss_latency::total    3160627000                       # number of ReadExReq miss cycles
system.l2.ReadExReq_accesses::.cpu.data         38936                       # number of ReadExReq accesses(hits+misses)
system.l2.ReadExReq_accesses::total             38936                       # number of ReadExReq accesses(hits+misses)
system.l2.ReadExReq_miss_rate::.cpu.data     0.996815                       # miss rate for ReadExReq accesses
system.l2.ReadExReq_miss_rate::total         0.996815                       # miss rate for ReadExReq accesses
system.l2.ReadExReq_avg_miss_latency::.cpu.data 81434.272905                       # average ReadExReq miss latency
system.l2.ReadExReq_avg_miss_latency::total 81434.272905                       # average ReadExReq miss latency
system.l2.ReadExReq_mshr_misses::.cpu.data        38812                       # number of ReadExReq MSHR misses
system.l2.ReadExReq_mshr_misses::total          38812                       # number of ReadExReq MSHR misses
system.l2.ReadExReq_mshr_miss_latency::.cpu.data   2772507000                       # number of ReadExReq MSHR miss cycles
system.l2.ReadExReq_mshr_miss_latency::total   2772507000                       # number of ReadExReq MSHR miss cycles
system.l2.ReadExReq_mshr_miss_rate::.cpu.data     0.996815                       # mshr miss rate for ReadExReq accesses
system.l2.ReadExReq_mshr_miss_rate::total     0.996815                       # mshr miss rate for ReadExReq accesses
system.l2.ReadExReq_avg_mshr_miss_latency::.cpu.data 71434.272905                       # average ReadExReq mshr miss latency
system.l2.ReadExReq_avg_mshr_miss_latency::total 71434.272905                       # average ReadExReq mshr miss latency
system.l2.ReadCleanReq_hits::.cpu.inst         668384                       # number of ReadCleanReq hits
system.l2.ReadCleanReq_hits::total             668384                       # number of ReadCleanReq hits
system.l2.ReadCleanReq_misses::.cpu.inst          527                       # number of ReadCleanReq misses
system.l2.ReadCleanReq_misses::total              527                       # number of ReadCleanReq misses
system.l2.ReadCleanReq_miss_latency::.cpu.inst     40652000                       # number of ReadCleanReq miss cycles
system.l2.ReadCleanReq_miss_latency::total     40652000                       # number of ReadCleanReq miss cycles
system.l2.ReadCleanReq_accesses::.cpu.inst       668911                       # number of ReadCleanReq accesses(hits+misses)
system.l2.ReadCleanReq_accesses::total         668911                       # number of ReadCleanReq accesses(hits+misses)
system.l2.ReadCleanReq_miss_rate::.cpu.inst     0.000788                       # miss rate for ReadCleanReq accesses
system.l2.ReadCleanReq_miss_rate::total      0.000788                       # miss rate for ReadCleanReq accesses
system.l2.ReadCleanReq_avg_miss_latency::.cpu.inst 77138.519924                       # average ReadCleanReq miss latency
system.l2.ReadCleanReq_avg_miss_latency::total 77138.519924                       # average ReadCleanReq miss latency
system.l2.ReadCleanReq_mshr_hits::.cpu.inst            1                       # number of ReadCleanReq MSHR hits
system.l2.ReadCleanReq_mshr_hits::total             1                       # number of ReadCleanReq MSHR hits
system.l2.ReadCleanReq_mshr_misses::.cpu.inst          526                       # number of ReadCleanReq MSHR misses
system.l2.ReadCleanReq_mshr_misses::total          526                       # number of ReadCleanReq MSHR misses
system.l2.ReadCleanReq_mshr_miss_latency::.cpu.inst     35327500                       # number of ReadCleanReq MSHR miss cycles
system.l2.ReadCleanReq_mshr_miss_latency::total     35327500                       # number of ReadCleanReq MSHR miss cycles
system.l2.ReadCleanReq_mshr_miss_rate::.cpu.inst     0.000786                       # mshr miss rate for ReadCleanReq accesses
system.l2.ReadCleanReq_mshr_miss_rate::total     0.000786                       # mshr miss rate for ReadCleanReq accesses
system.l2.ReadCleanReq_avg_mshr_miss_latency::.cpu.inst 67162.547529                       # average ReadCleanReq mshr miss latency
system.l2.ReadCleanReq_avg_mshr_miss_latency::total 67162.547529                       # average ReadCleanReq mshr miss latency
system.l2.ReadSharedReq_hits::.cpu.data         12949                       # number of ReadSharedReq hits
system.l2.ReadSharedReq_hits::total             12949                       # number of ReadSharedReq hits
system.l2.ReadSharedReq_misses::.cpu.data         3346                       # number of ReadSharedReq misses
system.l2.ReadSharedReq_misses::total            3346                       # number of ReadSharedReq misses
system.l2.ReadSharedReq_miss_latency::.cpu.data    305318000                       # number of ReadSharedReq miss cycles
system.l2.ReadSharedReq_miss_latency::total    305318000                       # number of ReadSharedReq miss cycles
system.l2.ReadSharedReq_accesses::.cpu.data        16295                       # number of ReadSharedReq accesses(hits+misses)
system.l2.ReadSharedReq_accesses::total         16295                       # number of ReadSharedReq accesses(hits+misses)
system.l2.ReadSharedReq_miss_rate::.cpu.data     0.205339                       # miss rate for ReadSharedReq accesses
system.l2.ReadSharedReq_miss_rate::total     0.205339                       # miss rate for ReadSharedReq accesses
system.l2.ReadSharedReq_avg_miss_latency::.cpu.data 91248.655111                       # average ReadSharedReq miss latency
system.l2.ReadSharedReq_avg_miss_latency::total 91248.655111                       # average ReadSharedReq miss latency
system.l2.ReadSharedReq_mshr_hits::.cpu.data            5                       # number of ReadSharedReq MSHR hits
system.l2.ReadSharedReq_mshr_hits::total            5                       # number of ReadSharedReq MSHR hits
system.l2.ReadSharedReq_mshr_misses::.cpu.data         3341                       # number of ReadSharedReq MSHR misses
system.l2.ReadSharedReq_mshr_misses::total         3341                       # number of ReadSharedReq MSHR misses
system.l2.ReadSharedReq_mshr_miss_latency::.cpu.data    271581000                       # number of ReadSharedReq MSHR miss cycles
system.l2.ReadSharedReq_mshr_miss_latency::total    271581000                       # number of ReadSharedReq MSHR miss cycles
system.l2.ReadSharedReq_mshr_miss_rate::.cpu.data     0.205032                       # mshr miss rate for ReadSharedReq accesses
system.l2.ReadSharedReq_mshr_miss_rate::total     0.205032                       # mshr miss rate for ReadSharedReq accesses
system.l2.ReadSharedReq_avg_mshr_miss_latency::.cpu.data 81287.339120                       # average ReadSharedReq mshr miss latency
system.l2.ReadSharedReq_avg_mshr_miss_latency::total 81287.339120                       # average ReadSharedReq mshr miss latency
system.l2.tags.pwrStateResidencyTicks::UNDEFINED  65066314500                       # Cumulative time (in ticks) in various power states
system.l2.tags.tagsinuse                 23520.450946                       # Cycle average of tags in use
system.l2.tags.total_refs                     1446655                       # Total number of references to valid blocks.
system.l2.tags.sampled_refs                     44109                       # Sample count of references to valid blocks.
system.l2.tags.avg_refs                     32.797275                       # Average number of references to valid blocks.
system.l2.tags.warmup_cycle                     77000                       # Cycle when the warmup percentage was hit.
system.l2.tags.occ_blocks::.writebacks     201.488943                       # Average occupied blocks per requestor
system.l2.tags.occ_blocks::.cpu.inst        86.079517                       # Average occupied blocks per requestor
system.l2.tags.occ_blocks::.cpu.data     23232.882486                       # Average occupied blocks per requestor
system.l2.tags.occ_percent::.writebacks      0.006149                       # Average percentage of cache occupancy
system.l2.tags.occ_percent::.cpu.inst        0.002627                       # Average percentage of cache occupancy
system.l2.tags.occ_percent::.cpu.data        0.709011                       # Average percentage of cache occupancy
system.l2.tags.occ_percent::total            0.717787                       # Average percentage of cache occupancy
system.l2.tags.occ_task_id_blocks::1024         28248                       # Occupied blocks per task id
system.l2.tags.age_task_id_blocks_1024::0            4                       # Occupied blocks per task id
system.l2.tags.age_task_id_blocks_1024::1           30                       # Occupied blocks per task id
system.l2.tags.age_task_id_blocks_1024::2          464                       # Occupied blocks per task id
system.l2.tags.age_task_id_blocks_1024::3         4097                       # Occupied blocks per task id
system.l2.tags.age_task_id_blocks_1024::4        23653                       # Occupied blocks per task id
system.l2.tags.occ_task_id_percent::1024     0.862061                       # Percentage of cache occupancy per task id
system.l2.tags.tag_accesses                   1490942                       # Number of tag accesses
system.l2.tags.data_accesses                  1490942                       # Number of data accesses
system.cpu_voltage_domain.voltage                   1                       # Voltage in Volts
system.mem_ctrls.pwrStateResidencyTicks::UNDEFINED  65066314500                       # Cumulative time (in ticks) in various power states
system.mem_ctrls.bytes_read::.cpu.inst          33664                       # Number of bytes read from this memory
system.mem_ctrls.bytes_read::.cpu.data        2697792                       # Number of bytes read from this memory
system.mem_ctrls.bytes_read::total            2731456                       # Number of bytes read from this memory
system.mem_ctrls.bytes_inst_read::.cpu.inst        33664                       # Number of instructions bytes read from this memory
system.mem_ctrls.bytes_inst_read::total         33664                       # Number of instructions bytes read from this memory
system.mem_ctrls.bytes_written::.writebacks       874752                       # Number of bytes written to this memory
system.mem_ctrls.bytes_written::total          874752                       # Number of bytes written to this memory
system.mem_ctrls.num_reads::.cpu.inst             526                       # Number of read requests responded to by this memory
system.mem_ctrls.num_reads::.cpu.data           42153                       # Number of read requests responded to by this memory
system.mem_ctrls.num_reads::total               42679                       # Number of read requests responded to by this memory
system.mem_ctrls.num_writes::.writebacks        13668                       # Number of write requests responded to by this memory
system.mem_ctrls.num_writes::total              13668                       # Number of write requests responded to by this memory
system.mem_ctrls.bw_read::.cpu.inst            517380                       # Total read bandwidth from this memory (bytes/s)
system.mem_ctrls.bw_read::.cpu.data          41462192                       # Total read bandwidth from this memory (bytes/s)
system.mem_ctrls.bw_read::total              41979571                       # Total read bandwidth from this memory (bytes/s)
system.mem_ctrls.bw_inst_read::.cpu.inst       517380                       # Instruction read bandwidth from this memory (bytes/s)
system.mem_ctrls.bw_inst_read::total           517380                       # Instruction read bandwidth from this memory (bytes/s)
system.mem_ctrls.bw_write::.writebacks       13444007                       # Write bandwidth from this memory (bytes/s)
system.mem_ctrls.bw_write::total             13444007                       # Write bandwidth from this memory (bytes/s)
system.mem_ctrls.bw_total::.writebacks       13444007                       # Total bandwidth to/from this memory (bytes/s)
system.mem_ctrls.bw_total::.cpu.inst           517380                       # Total bandwidth to/from this memory (bytes/s)
system.mem_ctrls.bw_total::.cpu.data         41462192                       # Total bandwidth to/from this memory (bytes/s)
system.mem_ctrls.bw_total::total             55423579                       # Total bandwidth to/from this memory (bytes/s)
system.mem_ctrls.avgPriority_.writebacks::samples     13668.00                       # Average QoS priority value for accepted requests
system.mem_ctrls.avgPriority_.cpu.inst::samples       526.00                       # Average QoS priority value for accepted requests
system.mem_ctrls.avgPriority_.cpu.data::samples     42140.00                       # Average QoS priority value for accepted requests
system.mem_ctrls.priorityMinLatency      0.000000018750                       # per QoS priority minimum request to response latency (s)
system.mem_ctrls.priorityMaxLatency      0.029189898500                       # per QoS priority maximum request to response latency (s)
system.mem_ctrls.numReadWriteTurnArounds          754                       # Number of turnarounds from READ to WRITE
system.mem_ctrls.numWriteReadTurnArounds          754                       # Number of turnarounds from WRITE to READ
system.mem_ctrls.numStayReadState              115598                       # Number of times bus staying in READ state
system.mem_ctrls.numStayWriteState              12907                       # Number of times bus staying in WRITE state
system.mem_ctrls.readReqs                       42679                       # Number of read requests accepted
system.mem_ctrls.writeReqs                      13668                       # Number of write requests accepted
system.mem_ctrls.readBursts                     42679                       # Number of DRAM read bursts, including those serviced by the write queue
system.mem_ctrls.writeBursts                    13668                       # Number of DRAM write bursts, including those merged in the write queue
system.mem_ctrls.servicedByWrQ                     13                       # Number of DRAM read bursts serviced by the write queue
system.mem_ctrls.mergedWrBursts                     0                       # Number of DRAM write bursts merged with an existing one
system.mem_ctrls.neitherReadNorWriteReqs            0                       # Number of requests that are neither read nor write
system.mem_ctrls.perBankRdBursts::0              2631                       # Per bank write bursts
system.mem_ctrls.perBankRdBursts::1              2509                       # Per bank write bursts
system.mem_ctrls.perBankRdBursts::2              2492                       # Per bank write bursts
system.mem_ctrls.perBankRdBursts::3              2823                       # Per bank write bursts
system.mem_ctrls.perBankRdBursts::4              2932                       # Per bank write bursts
system.mem_ctrls.perBankRdBursts::5              2635                       # Per bank write bursts
system.mem_ctrls.perBankRdBursts::6              2642                       # Per bank write bursts
system.mem_ctrls.perBankRdBursts::7              2656                       # Per bank write bursts
system.mem_ctrls.perBankRdBursts::8              2659                       # Per bank write bursts
system.mem_ctrls.perBankRdBursts::9              2682                       # Per bank write bursts
system.mem_ctrls.perBankRdBursts::10             2659                       # Per bank write bursts
system.mem_ctrls.perBankRdBursts::11             2689                       # Per bank write bursts
system.mem_ctrls.perBankRdBursts::12             2681                       # Per bank write bursts
system.mem_ctrls.perBankRdBursts::13             2626                       # Per bank write bursts
system.mem_ctrls.perBankRdBursts::14             2697                       # Per bank write bursts
system.mem_ctrls.perBankRdBursts::15             2653                       # Per bank write bursts
system.mem_ctrls.perBankWrBursts::0               824                       # Per bank write bursts
system.mem_ctrls.perBankWrBursts::1               814                       # Per bank write bursts
system.mem_ctrls.perBankWrBursts::2               812                       # Per bank write bursts
system.mem_ctrls.perBankWrBursts::3              1012                       # Per bank write bursts
system.mem_ctrls.perBankWrBursts::4              1022                       # Per bank write bursts
system.mem_ctrls.perBankWrBursts::5               840                       # Per bank write bursts
system.mem_ctrls.perBankWrBursts::6               850                       # Per bank write bursts
system.mem_ctrls.perBankWrBursts::7               836                       # Per bank write bursts
system.mem_ctrls.perBankWrBursts::8               843                       # Per bank write bursts
system.mem_ctrls.perBankWrBursts::9               836                       # Per bank write bursts
system.mem_ctrls.perBankWrBursts::10              834                       # Per bank write bursts
system.mem_ctrls.perBankWrBursts::11              837                       # Per bank write bursts
system.mem_ctrls.perBankWrBursts::12              831                       # Per bank write bursts
system.mem_ctrls.perBankWrBursts::13              807                       # Per bank write bursts
system.mem_ctrls.perBankWrBursts::14              828                       # Per bank write bursts
system.mem_ctrls.perBankWrBursts::15              827                       # Per bank write bursts
system.mem_ctrls.avgRdQLen                       1.03                       # Average read queue length when enqueuing
system.mem_ctrls.avgWrQLen                      21.77                       # Average write queue length when enqueuing
system.mem_ctrls.totQLat                    526872250                       # Total ticks spent queuing
system.mem_ctrls.totBusLat                  213330000                       # Total ticks spent in databus transfers
system.mem_ctrls.totMemAccLat              1326859750                       # Total ticks spent from burst creation until serviced by the DRAM
system.mem_ctrls.avgQLat                     12348.76                       # Average queueing delay per DRAM burst
system.mem_ctrls.avgBusLat                    5000.00                       # Average bus latency per DRAM burst
system.mem_ctrls.avgMemAccLat                31098.76                       # Average memory access latency per DRAM burst
system.mem_ctrls.numRdRetry                         0                       # Number of times read queue was full causing retry
system.mem_ctrls.numWrRetry                         0                       # Number of times write queue was full causing retry
system.mem_ctrls.readRowHits                    27306                       # Number of row buffer hits during reads
system.mem_ctrls.writeRowHits                   10392                       # Number of row buffer hits during writes
system.mem_ctrls.readRowHitRate                 64.00                       # Row buffer hit rate for reads
system.mem_ctrls.writeRowHitRate                76.03                       # Row buffer hit rate for writes
system.mem_ctrls.readPktSize::0                     0                       # Read request sizes (log2)
system.mem_ctrls.readPktSize::1                     0                       # Read request sizes (log2)
system.mem_ctrls.readPktSize::2                     0                       # Read request sizes (log2)
system.mem_ctrls.readPktSize::3                     0                       # Read request sizes (log2)
system.mem_ctrls.readPktSize::4                     0                       # Read request sizes (log2)
system.mem_ctrls.readPktSize::5                     0                       # Read request sizes (log2)
system.mem_ctrls.readPktSize::6                 42679                       # Read request sizes (log2)
system.mem_ctrls.writePktSize::0                    0                       # Write request sizes (log2)
system.mem_ctrls.writePktSize::1                    0                       # Write request sizes (log2)
system.mem_ctrls.writePktSize::2                    0                       # Write request sizes (log2)
system.mem_ctrls.writePktSize::3                    0                       # Write request sizes (log2)
system.mem_ctrls.writePktSize::4                    0                       # Write request sizes (log2)
system.mem_ctrls.writePktSize::5                    0                       # Write request sizes (log2)
system.mem_ctrls.writePktSize::6                13668                       # Write request sizes (log2)
system.mem_ctrls.rdQLenPdf::0                   41708                       # What read queue length does an incoming req see
system.mem_ctrls.rdQLenPdf::1                     951                       # What read queue length does an incoming req see
system.mem_ctrls.rdQLenPdf::2                       7                       # What read queue length does an incoming req see
system.mem_ctrls.rdQLenPdf::3                       0                       # What read queue length does an incoming req see
system.mem_ctrls.rdQLenPdf::4                       0                       # What read queue length does an incoming req see
system.mem_ctrls.rdQLenPdf::5                       0                       # What read queue length does an incoming req see
system.mem_ctrls.rdQLenPdf::6                       0                       # What read queue length does an incoming req see
system.mem_ctrls.rdQLenPdf::7                       0                       # What read queue length does an incoming req see
system.mem_ctrls.rdQLenPdf::8                       0                       # What read queue length does an incoming req see
system.mem_ctrls.rdQLenPdf::9                       0                       # What read queue length does an incoming req see
system.mem_ctrls.rdQLenPdf::10                      0                       # What read queue length does an incoming req see
system.mem_ctrls.rdQLenPdf::11                      0                       # What read queue length does an incoming req see
system.mem_ctrls.rdQLenPdf::12                      0                       # What read queue length does an incoming req see
system.mem_ctrls.rdQLenPdf::13                      0                       # What read queue length does an incoming req see
system.mem_ctrls.rdQLenPdf::14                      0                       # What read queue length does an incoming req see
system.mem_ctrls.rdQLenPdf::15                      0                       # What read queue length does an incoming req see
system.mem_ctrls.rdQLenPdf::16                      0                       # What read queue length does an incoming req see
system.mem_ctrls.rdQLenPdf::17                      0                       # What read queue length does an incoming req see
system.mem_ctrls.rdQLenPdf::18                      0                       # What read queue length does an incoming req see
system.mem_ctrls.rdQLenPdf::19                      0                       # What read queue length does an incoming req see
system.mem_ctrls.rdQLenPdf::20                      0                       # What read queue length does an incoming req see
system.mem_ctrls.rdQLenPdf::21                      0                       # What read queue length does an incoming req see
system.mem_ctrls.rdQLenPdf::22                      0                       # What read queue length does an incoming req see
system.mem_ctrls.rdQLenPdf::23                      0                       # What read queue length does an incoming req see
system.mem_ctrls.rdQLenPdf::24                      0                       # What read queue length does an incoming req see
system.mem_ctrls.rdQLenPdf::25                      0                       # What read queue length does an incoming req see
system.mem_ctrls.rdQLenPdf::26                      0                       # What read queue length does an incoming req see
system.mem_ctrls.rdQLenPdf::27                      0                       # What read queue length does an incoming req see
system.mem_ctrls.rdQLenPdf::28                      0                       # What read queue length does an incoming req see
system.mem_ctrls.rdQLenPdf::29                      0                       # What read queue length does an incoming req see
system.mem_ctrls.rdQLenPdf::30                      0                       # What read queue length does an incoming req see
system.mem_ctrls.rdQLenPdf::31                      0                       # What read queue length does an incoming req see
system.mem_ctrls.wrQLenPdf::0                       1                       # What write queue length does an incoming req see
system.mem_ctrls.wrQLenPdf::1                       1                       # What write queue length does an incoming req see
system.mem_ctrls.wrQLenPdf::2                       1                       # What write queue length does an incoming req see
system.mem_ctrls.wrQLenPdf::3                       1                       # What write queue length does an incoming req see
system.mem_ctrls.wrQLenPdf::4                       1                       # What write queue length does an incoming req see
system.mem_ctrls.wrQLenPdf::5                       1                       # What write queue length does an incoming req see
system.mem_ctrls.wrQLenPdf::6                       1                       # What write queue length does an incoming req see
system.mem_ctrls.wrQLenPdf::7                       1                       # What write queue length does an incoming req see
system.mem_ctrls.wrQLenPdf::8                       1                       # What write queue length does an incoming req see
system.mem_ctrls.wrQLenPdf::9                       1                       # What write queue length does an incoming req see
system.mem_ctrls.wrQLenPdf::10                      1                       # What write queue length does an incoming req see
system.mem_ctrls.wrQLenPdf::11                      1                       # What write queue length does an incoming req see
system.mem_ctrls.wrQLenPdf::12                      1                       # What write queue length does an incoming req see
system.mem_ctrls.wrQLenPdf::13                      1                       # What write queue length does an incoming req see
system.mem_ctrls.wrQLenPdf::14                      1                       # What write queue length does an incoming req see
system.mem_ctrls.wrQLenPdf::15                    751                       # What write queue length does an incoming req see
system.mem_ctrls.wrQLenPdf::16                    751                       # What write queue length does an incoming req see
system.mem_ctrls.wrQLenPdf::17                    754                       # What write queue length does an incoming req see
system.mem_ctrls.wrQLenPdf::18                    754                       # What write queue length does an incoming req see
system.mem_ctrls.wrQLenPdf::19                    754                       # What write queue length does an incoming req see
system.mem_ctrls.wrQLenPdf::20                    757                       # What write queue length does an incoming req see
system.mem_ctrls.wrQLenPdf::21                    756                       # What write queue length does an incoming req see
system.mem_ctrls.wrQLenPdf::22                    755                       # What write queue length does an incoming req see
system.mem_ctrls.wrQLenPdf::23                    761                       # What write queue length does an incoming req see
system.mem_ctrls.wrQLenPdf::24                    771                       # What write queue length does an incoming req see
system.mem_ctrls.wrQLenPdf::25                    761                       # What write queue length does an incoming req see
system.mem_ctrls.wrQLenPdf::26                    784                       # What write queue length does an incoming req see
system.mem_ctrls.wrQLenPdf::27                    757                       # What write queue length does an incoming req see
system.mem_ctrls.wrQLenPdf::28                    764                       # What write queue length does an incoming req see
system.mem_ctrls.wrQLenPdf::29                    758                       # What write queue length does an incoming req see
system.mem_ctrls.wrQLenPdf::30                    756                       # What write queue length does an incoming req see
system.mem_ctrls.wrQLenPdf::31                    754                       # What write queue length does an incoming req see
system.mem_ctrls.wrQLenPdf::32                    754                       # What write queue length does an incoming req see
system.mem_ctrls.wrQLenPdf::33                      1                       # What write queue length does an incoming req see
system.mem_ctrls.wrQLenPdf::34                      0                       # What write queue length does an incoming req see
system.mem_ctrls.wrQLenPdf::35                      0                       # What write queue length does an incoming req see
system.mem_ctrls.wrQLenPdf::36                      0                       # What write queue length does an incoming req see
system.mem_ctrls.wrQLenPdf::37                      0                       # What write queue length does an incoming req see
system.mem_ctrls.wrQLenPdf::38                      0                       # What write queue length does an incoming req see
system.mem_ctrls.wrQLenPdf::39                      0                       # What write queue length does an incoming req see
system.mem_ctrls.wrQLenPdf::40                      0                       # What write queue length does an incoming req see
system.mem_ctrls.wrQLenPdf::41                      0                       # What write queue length does an incoming req see
system.mem_ctrls.wrQLenPdf::42                      0                       # What write queue length does an incoming req see
system.mem_ctrls.wrQLenPdf::43                      0                       # What write queue length does an incoming req see
system.mem_ctrls.wrQLenPdf::44                      0                       # What write queue length does an incoming req see
system.mem_ctrls.wrQLenPdf::45                      0                       # What write queue length does an incoming req see
system.mem_ctrls.wrQLenPdf::46                      0                       # What write queue length does an incoming req see
system.mem_ctrls.wrQLenPdf::47                      0                       # What write queue length does an incoming req see
system.mem_ctrls.wrQLenPdf::48                      0                       # What write queue length does an incoming req see
system.mem_ctrls.wrQLenPdf::49                      0                       # What write queue length does an incoming req see
system.mem_ctrls.wrQLenPdf::50                      0                       # What write queue length does an incoming req see
system.mem_ctrls.wrQLenPdf::51                      0                       # What write queue length does an incoming req see
system.mem_ctrls.wrQLenPdf::52                      0                       # What write queue length does an incoming req see
system.mem_ctrls.wrQLenPdf::53                      0                       # What write queue length does an incoming req see
system.mem_ctrls.wrQLenPdf::54                      0                       # What write queue length does an incoming req see
system.mem_ctrls.wrQLenPdf::55                      0                       # What write queue length does an incoming req see
system.mem_ctrls.wrQLenPdf::56                      0                       # What write queue length does an incoming req see
system.mem_ctrls.wrQLenPdf::57                      0                       # What write queue length does an incoming req see
system.mem_ctrls.wrQLenPdf::58                      0                       # What write queue length does an incoming req see
system.mem_ctrls.wrQLenPdf::59                      0                       # What write queue length does an incoming req see
system.mem_ctrls.wrQLenPdf::60                      0                       # What write queue length does an incoming req see
system.mem_ctrls.wrQLenPdf::61                      0                       # What write queue length does an incoming req see
system.mem_ctrls.wrQLenPdf::62                      0                       # What write queue length does an incoming req see
system.mem_ctrls.wrQLenPdf::63                      0                       # What write queue length does an incoming req see
system.mem_ctrls.bytesPerActivate::samples        18620                       # Bytes accessed per row activation
system.mem_ctrls.bytesPerActivate::mean    193.570784                       # Bytes accessed per row activation
system.mem_ctrls.bytesPerActivate::gmean   144.515580                       # Bytes accessed per row activation
system.mem_ctrls.bytesPerActivate::stdev   183.019454                       # Bytes accessed per row activation
system.mem_ctrls.bytesPerActivate::0-127         6133     32.94%     32.94% # Bytes accessed per row activation
system.mem_ctrls.bytesPerActivate::128-255         8571     46.03%     78.97% # Bytes accessed per row activation
system.mem_ctrls.bytesPerActivate::256-383         2068     11.11%     90.08% # Bytes accessed per row activation
system.mem_ctrls.bytesPerActivate::384-511          457      2.45%     92.53% # Bytes accessed per row activation
system.mem_ctrls.bytesPerActivate::512-639          736      3.95%     96.48% # Bytes accessed per row activation
system.mem_ctrls.bytesPerActivate::640-767           68      0.37%     96.85% # Bytes accessed per row activation
system.mem_ctrls.bytesPerActivate::768-895          102      0.55%     97.40% # Bytes accessed per row activation
system.mem_ctrls.bytesPerActivate::896-1023          195      1.05%     98.44% # Bytes accessed per row activation
system.mem_ctrls.bytesPerActivate::1024-1151          290      1.56%    100.00% # Bytes accessed per row activation
system.mem_ctrls.bytesPerActivate::total        18620                       # Bytes accessed per row activation
system.mem_ctrls.rdPerTurnAround::samples          754                       # Reads before turning the bus around for writes
system.mem_ctrls.rdPerTurnAround::mean      56.472149                       # Reads before turning the bus around for writes
system.mem_ctrls.rdPerTurnAround::gmean     19.864551                       # Reads before turning the bus around for writes
system.mem_ctrls.rdPerTurnAround::stdev    909.075505                       # Reads before turning the bus around for writes
system.mem_ctrls.rdPerTurnAround::0-1023          753     99.87%     99.87% # Reads before turning the bus around for writes
system.mem_ctrls.rdPerTurnAround::24576-25599            1      0.13%    100.00% # Reads before turning the bus around for writes
[...]
system.cpu.icache.ReadReq_mshr_miss_latency::.cpu.inst   8062064500                       # number of ReadReq MSHR miss cycles
system.cpu.icache.ReadReq_mshr_miss_latency::total   8062064500                       # number of ReadReq MSHR miss cycles
system.cpu.icache.ReadReq_mshr_miss_rate::.cpu.inst     0.023612                       # mshr miss rate for ReadReq accesses
system.cpu.icache.ReadReq_mshr_miss_rate::total     0.023612                       # mshr miss rate for ReadReq accesses
system.cpu.icache.ReadReq_avg_mshr_miss_latency::.cpu.inst 12052.521935                       # average ReadReq mshr miss latency
system.cpu.icache.ReadReq_avg_mshr_miss_latency::total 12052.521935                       # average ReadReq mshr miss latency
system.cpu.icache.tags.pwrStateResidencyTicks::UNDEFINED  65066314500                       # Cumulative time (in ticks) in various power states
system.cpu.icache.tags.tagsinuse           397.678283                       # Cycle average of tags in use
system.cpu.icache.tags.total_refs            28328833                       # Total number of references to valid blocks.
system.cpu.icache.tags.sampled_refs            668911                       # Sample count of references to valid blocks.
system.cpu.icache.tags.avg_refs             42.350676                       # Average number of references to valid blocks.
system.cpu.icache.tags.warmup_cycle             87500                       # Cycle when the warmup percentage was hit.
system.cpu.icache.tags.occ_blocks::.cpu.inst   397.678283                       # Average occupied blocks per requestor
system.cpu.icache.tags.occ_percent::.cpu.inst     0.776715                       # Average percentage of cache occupancy
system.cpu.icache.tags.occ_percent::total     0.776715                       # Average percentage of cache occupancy
system.cpu.icache.tags.occ_task_id_blocks::1024          398                       # Occupied blocks per task id
system.cpu.icache.tags.age_task_id_blocks_1024::0           10                       # Occupied blocks per task id
system.cpu.icache.tags.age_task_id_blocks_1024::2            4                       # Occupied blocks per task id
system.cpu.icache.tags.age_task_id_blocks_1024::3            1                       # Occupied blocks per task id
system.cpu.icache.tags.age_task_id_blocks_1024::4          383                       # Occupied blocks per task id
system.cpu.icache.tags.occ_task_id_percent::1024     0.777344                       # Percentage of cache occupancy per task id
system.cpu.icache.tags.tag_accesses          57326577                       # Number of tag accesses
system.cpu.icache.tags.data_accesses         57326577                       # Number of data accesses
system.cpu.dtb.walker.pwrStateResidencyTicks::UNDEFINED  65066314500                       # Cumulative time (in ticks) in various power states
system.cpu.dtb.stage2_mmu.stage2_tlb.walker.pwrStateResidencyTicks::UNDEFINED  65066314500                       # Cumulative time (in ticks) in various power states
system.cpu.dcache.pwrStateResidencyTicks::UNDEFINED  65066314500                       # Cumulative time (in ticks) in various power states
system.cpu.dcache.demand_hits::.cpu.data     34815473                       # number of demand (read+write) hits
system.cpu.dcache.demand_hits::total         34815473                       # number of demand (read+write) hits
system.cpu.dcache.overall_hits::.cpu.data     34818800                       # number of overall hits
system.cpu.dcache.overall_hits::total        34818800                       # number of overall hits
system.cpu.dcache.demand_misses::.cpu.data        75061                       # number of demand (read+write) misses
system.cpu.dcache.demand_misses::total          75061                       # number of demand (read+write) misses
system.cpu.dcache.overall_misses::.cpu.data        75099                       # number of overall misses
system.cpu.dcache.overall_misses::total         75099                       # number of overall misses
system.cpu.dcache.demand_miss_latency::.cpu.data   4887820500                       # number of demand (read+write) miss cycles
system.cpu.dcache.demand_miss_latency::total   4887820500                       # number of demand (read+write) miss cycles
system.cpu.dcache.overall_miss_latency::.cpu.data   4887820500                       # number of overall miss cycles
system.cpu.dcache.overall_miss_latency::total   4887820500                       # number of overall miss cycles
system.cpu.dcache.demand_accesses::.cpu.data     34890534                       # number of demand (read+write) accesses
system.cpu.dcache.demand_accesses::total     34890534                       # number of demand (read+write) accesses
system.cpu.dcache.overall_accesses::.cpu.data     34893899                       # number of overall (read+write) accesses
system.cpu.dcache.overall_accesses::total     34893899                       # number of overall (read+write) accesses
system.cpu.dcache.demand_miss_rate::.cpu.data     0.002151                       # miss rate for demand accesses
system.cpu.dcache.demand_miss_rate::total     0.002151                       # miss rate for demand accesses
system.cpu.dcache.overall_miss_rate::.cpu.data     0.002152                       # miss rate for overall accesses
system.cpu.dcache.overall_miss_rate::total     0.002152                       # miss rate for overall accesses
system.cpu.dcache.demand_avg_miss_latency::.cpu.data 65117.977378                       # average overall miss latency
system.cpu.dcache.demand_avg_miss_latency::total 65117.977378                       # average overall miss latency
system.cpu.dcache.overall_avg_miss_latency::.cpu.data 65085.027763                       # average overall miss latency
system.cpu.dcache.overall_avg_miss_latency::total 65085.027763                       # average overall miss latency
system.cpu.dcache.blocked_cycles::no_mshrs            0                       # number of cycles access was blocked
system.cpu.dcache.blocked_cycles::no_targets            0                       # number of cycles access was blocked
system.cpu.dcache.blocked::no_mshrs                 0                       # number of cycles access was blocked
system.cpu.dcache.blocked::no_targets               0                       # number of cycles access was blocked
system.cpu.dcache.avg_blocked_cycles::no_mshrs          nan                       # average number of cycles each access was blocked
system.cpu.dcache.avg_blocked_cycles::no_targets          nan                       # average number of cycles each access was blocked
system.cpu.dcache.writebacks::.writebacks        50416                       # number of writebacks
system.cpu.dcache.writebacks::total             50416                       # number of writebacks
system.cpu.dcache.demand_mshr_hits::.cpu.data        19862                       # number of demand (read+write) MSHR hits
system.cpu.dcache.demand_mshr_hits::total        19862                       # number of demand (read+write) MSHR hits
system.cpu.dcache.overall_mshr_hits::.cpu.data        19862                       # number of overall MSHR hits
system.cpu.dcache.overall_mshr_hits::total        19862                       # number of overall MSHR hits
system.cpu.dcache.demand_mshr_misses::.cpu.data        55199                       # number of demand (read+write) MSHR misses
system.cpu.dcache.demand_mshr_misses::total        55199                       # number of demand (read+write) MSHR misses
system.cpu.dcache.overall_mshr_misses::.cpu.data        55231                       # number of overall MSHR misses
system.cpu.dcache.overall_mshr_misses::total        55231                       # number of overall MSHR misses
system.cpu.dcache.demand_mshr_miss_latency::.cpu.data   3684740500                       # number of demand (read+write) MSHR miss cycles
system.cpu.dcache.demand_mshr_miss_latency::total   3684740500                       # number of demand (read+write) MSHR miss cycles
system.cpu.dcache.overall_mshr_miss_latency::.cpu.data   3686073000                       # number of overall MSHR miss cycles
system.cpu.dcache.overall_mshr_miss_latency::total   3686073000                       # number of overall MSHR miss cycles
system.cpu.dcache.demand_mshr_miss_rate::.cpu.data     0.001582                       # mshr miss rate for demand accesses
system.cpu.dcache.demand_mshr_miss_rate::total     0.001582                       # mshr miss rate for demand accesses
system.cpu.dcache.overall_mshr_miss_rate::.cpu.data     0.001583                       # mshr miss rate for overall accesses
system.cpu.dcache.overall_mshr_miss_rate::total     0.001583                       # mshr miss rate for overall accesses
system.cpu.dcache.demand_avg_mshr_miss_latency::.cpu.data 66753.754597                       # average overall mshr miss latency
system.cpu.dcache.demand_avg_mshr_miss_latency::total 66753.754597                       # average overall mshr miss latency
system.cpu.dcache.overall_avg_mshr_miss_latency::.cpu.data 66739.204432                       # average overall mshr miss latency
system.cpu.dcache.overall_avg_mshr_miss_latency::total 66739.204432                       # average overall mshr miss latency
system.cpu.dcache.replacements                  54207                       # number of replacements
system.cpu.dcache.ReadReq_hits::.cpu.data     20571827                       # number of ReadReq hits
system.cpu.dcache.ReadReq_hits::total        20571827                       # number of ReadReq hits
system.cpu.dcache.ReadReq_misses::.cpu.data        19489                       # number of ReadReq misses
system.cpu.dcache.ReadReq_misses::total         19489                       # number of ReadReq misses
system.cpu.dcache.ReadReq_miss_latency::.cpu.data    546323000                       # number of ReadReq miss cycles
system.cpu.dcache.ReadReq_miss_latency::total    546323000                       # number of ReadReq miss cycles
system.cpu.dcache.ReadReq_accesses::.cpu.data     20591316                       # number of ReadReq accesses(hits+misses)
system.cpu.dcache.ReadReq_accesses::total     20591316                       # number of ReadReq accesses(hits+misses)
system.cpu.dcache.ReadReq_miss_rate::.cpu.data     0.000946                       # miss rate for ReadReq accesses
system.cpu.dcache.ReadReq_miss_rate::total     0.000946                       # miss rate for ReadReq accesses
system.cpu.dcache.ReadReq_avg_miss_latency::.cpu.data 28032.377238                       # average ReadReq miss latency
system.cpu.dcache.ReadReq_avg_miss_latency::total 28032.377238                       # average ReadReq miss latency
system.cpu.dcache.ReadReq_mshr_hits::.cpu.data         3226                       # number of ReadReq MSHR hits
system.cpu.dcache.ReadReq_mshr_hits::total         3226                       # number of ReadReq MSHR hits
system.cpu.dcache.ReadReq_mshr_misses::.cpu.data        16263                       # number of ReadReq MSHR misses
system.cpu.dcache.ReadReq_mshr_misses::total        16263                       # number of ReadReq MSHR misses
system.cpu.dcache.ReadReq_mshr_miss_latency::.cpu.data    464407500                       # number of ReadReq MSHR miss cycles
system.cpu.dcache.ReadReq_mshr_miss_latency::total    464407500                       # number of ReadReq MSHR miss cycles
system.cpu.dcache.ReadReq_mshr_miss_rate::.cpu.data     0.000790                       # mshr miss rate for ReadReq accesses
system.cpu.dcache.ReadReq_mshr_miss_rate::total     0.000790                       # mshr miss rate for ReadReq accesses
system.cpu.dcache.ReadReq_avg_mshr_miss_latency::.cpu.data 28556.078214                       # average ReadReq mshr miss latency
system.cpu.dcache.ReadReq_avg_mshr_miss_latency::total 28556.078214                       # average ReadReq mshr miss latency
system.cpu.dcache.WriteReq_hits::.cpu.data     14243646                       # number of WriteReq hits
system.cpu.dcache.WriteReq_hits::total       14243646                       # number of WriteReq hits
system.cpu.dcache.WriteReq_misses::.cpu.data        55572                       # number of WriteReq misses
system.cpu.dcache.WriteReq_misses::total        55572                       # number of WriteReq misses
system.cpu.dcache.WriteReq_miss_latency::.cpu.data   4341497500                       # number of WriteReq miss cycles
system.cpu.dcache.WriteReq_miss_latency::total   4341497500                       # number of WriteReq miss cycles
system.cpu.dcache.WriteReq_accesses::.cpu.data     14299218                       # number of WriteReq accesses(hits+misses)
system.cpu.dcache.WriteReq_accesses::total     14299218                       # number of WriteReq accesses(hits+misses)
system.cpu.dcache.WriteReq_miss_rate::.cpu.data     0.003886                       # miss rate for WriteReq accesses
system.cpu.dcache.WriteReq_miss_rate::total     0.003886                       # miss rate for WriteReq accesses
system.cpu.dcache.WriteReq_avg_miss_latency::.cpu.data 78123.830346                       # average WriteReq miss latency
system.cpu.dcache.WriteReq_avg_miss_latency::total 78123.830346                       # average WriteReq miss latency
system.cpu.dcache.WriteReq_mshr_hits::.cpu.data        16636                       # number of WriteReq MSHR hits
system.cpu.dcache.WriteReq_mshr_hits::total        16636                       # number of WriteReq MSHR hits
system.cpu.dcache.WriteReq_mshr_misses::.cpu.data        38936                       # number of WriteReq MSHR misses
system.cpu.dcache.WriteReq_mshr_misses::total        38936                       # number of WriteReq MSHR misses
system.cpu.dcache.WriteReq_mshr_miss_latency::.cpu.data   3220333000                       # number of WriteReq MSHR miss cycles
system.cpu.dcache.WriteReq_mshr_miss_latency::total   3220333000                       # number of WriteReq MSHR miss cycles
system.cpu.dcache.WriteReq_mshr_miss_rate::.cpu.data     0.002723                       # mshr miss rate for WriteReq accesses
system.cpu.dcache.WriteReq_mshr_miss_rate::total     0.002723                       # mshr miss rate for WriteReq accesses
system.cpu.dcache.WriteReq_avg_mshr_miss_latency::.cpu.data 82708.367578                       # average WriteReq mshr miss latency
system.cpu.dcache.WriteReq_avg_mshr_miss_latency::total 82708.367578                       # average WriteReq mshr miss latency
system.cpu.dcache.SoftPFReq_hits::.cpu.data         3327                       # number of SoftPFReq hits
system.cpu.dcache.SoftPFReq_hits::total          3327                       # number of SoftPFReq hits
system.cpu.dcache.SoftPFReq_misses::.cpu.data           38                       # number of SoftPFReq misses
system.cpu.dcache.SoftPFReq_misses::total           38                       # number of SoftPFReq misses
system.cpu.dcache.SoftPFReq_accesses::.cpu.data         3365                       # number of SoftPFReq accesses(hits+misses)
system.cpu.dcache.SoftPFReq_accesses::total         3365                       # number of SoftPFReq accesses(hits+misses)
system.cpu.dcache.SoftPFReq_miss_rate::.cpu.data     0.011293                       # miss rate for SoftPFReq accesses
system.cpu.dcache.SoftPFReq_miss_rate::total     0.011293                       # miss rate for SoftPFReq accesses
system.cpu.dcache.SoftPFReq_mshr_misses::.cpu.data           32                       # number of SoftPFReq MSHR misses
system.cpu.dcache.SoftPFReq_mshr_misses::total           32                       # number of SoftPFReq MSHR misses
system.cpu.dcache.SoftPFReq_mshr_miss_latency::.cpu.data      1332500                       # number of SoftPFReq MSHR miss cycles
system.cpu.dcache.SoftPFReq_mshr_miss_latency::total      1332500                       # number of SoftPFReq MSHR miss cycles
system.cpu.dcache.SoftPFReq_mshr_miss_rate::.cpu.data     0.009510                       # mshr miss rate for SoftPFReq accesses
system.cpu.dcache.SoftPFReq_mshr_miss_rate::total     0.009510                       # mshr miss rate for SoftPFReq accesses
system.cpu.dcache.SoftPFReq_avg_mshr_miss_latency::.cpu.data 41640.625000                       # average SoftPFReq mshr miss latency
system.cpu.dcache.SoftPFReq_avg_mshr_miss_latency::total 41640.625000                       # average SoftPFReq mshr miss latency
system.cpu.dcache.LoadLockedReq_hits::.cpu.data        89082                       # number of LoadLockedReq hits
system.cpu.dcache.LoadLockedReq_hits::total        89082                       # number of LoadLockedReq hits
system.cpu.dcache.LoadLockedReq_accesses::.cpu.data        89082                       # number of LoadLockedReq accesses(hits+misses)
system.cpu.dcache.LoadLockedReq_accesses::total        89082                       # number of LoadLockedReq accesses(hits+misses)
system.cpu.dcache.StoreCondReq_hits::.cpu.data        89082                       # number of StoreCondReq hits
system.cpu.dcache.StoreCondReq_hits::total        89082                       # number of StoreCondReq hits
system.cpu.dcache.StoreCondReq_accesses::.cpu.data        89082                       # number of StoreCondReq accesses(hits+misses)
system.cpu.dcache.StoreCondReq_accesses::total        89082                       # number of StoreCondReq accesses(hits+misses)
system.cpu.dcache.tags.pwrStateResidencyTicks::UNDEFINED  65066314500                       # Cumulative time (in ticks) in various power states
system.cpu.dcache.tags.tagsinuse          1020.447513                       # Cycle average of tags in use
system.cpu.dcache.tags.total_refs            35052195                       # Total number of references to valid blocks.
system.cpu.dcache.tags.sampled_refs             55231                       # Sample count of references to valid blocks.
system.cpu.dcache.tags.avg_refs            634.647118                       # Average number of references to valid blocks.
system.cpu.dcache.tags.warmup_cycle            195500                       # Cycle when the warmup percentage was hit.
system.cpu.dcache.tags.occ_blocks::.cpu.data  1020.447513                       # Average occupied blocks per requestor
system.cpu.dcache.tags.occ_percent::.cpu.data     0.996531                       # Average percentage of cache occupancy
system.cpu.dcache.tags.occ_percent::total     0.996531                       # Average percentage of cache occupancy
system.cpu.dcache.tags.occ_task_id_blocks::1024         1024                       # Occupied blocks per task id
system.cpu.dcache.tags.age_task_id_blocks_1024::0            5                       # Occupied blocks per task id
system.cpu.dcache.tags.age_task_id_blocks_1024::1           49                       # Occupied blocks per task id
system.cpu.dcache.tags.age_task_id_blocks_1024::2          450                       # Occupied blocks per task id
system.cpu.dcache.tags.age_task_id_blocks_1024::3          484                       # Occupied blocks per task id
system.cpu.dcache.tags.age_task_id_blocks_1024::4           36                       # Occupied blocks per task id
system.cpu.dcache.tags.occ_task_id_percent::1024            1                       # Percentage of cache occupancy per task id
system.cpu.dcache.tags.tag_accesses          70199357                       # Number of tag accesses
system.cpu.dcache.tags.data_accesses         70199357                       # Number of data accesses
system.cpu.itb.walker.pwrStateResidencyTicks::UNDEFINED  65066314500                       # Cumulative time (in ticks) in various power states
system.cpu.itb.stage2_mmu.stage2_tlb.walker.pwrStateResidencyTicks::UNDEFINED  65066314500                       # Cumulative time (in ticks) in various power states

---------- End Simulation Statistics   ----------
