
---------- Begin Simulation Statistics ----------
final_tick                                57737698000                       # Number of ticks from beginning of simulation (restored from checkpoints and never reset)
host_inst_rate                                 273970                       # Simulator instruction rate (inst/s)
host_mem_usage                                 691608                       # Number of bytes of host memory used
host_op_rate                                   299810                       # Simulator op (including micro ops) rate (op/s)
host_seconds                                   365.00                       # Real time elapsed on the host
host_tick_rate                              158183654                       # Simulator tick rate (ticks/s)
sim_freq                                 1000000000000                       # Frequency of simulated ticks
sim_insts                                   100000000                       # Number of instructions simulated
sim_ops                                     109431930                       # Number of ops (including micro ops) simulated
sim_seconds                                  0.057738                       # Number of seconds simulated
sim_ticks                                 57737698000                       # Number of ticks simulated
system.cpu.branchPred.BTBCorrect                    0                       # Number of correct BTB predictions (this stat may not work properly.
system.cpu.branchPred.BTBHitPct             87.600026                       # BTB Hit Percentage
system.cpu.branchPred.BTBHits                 8747623                       # Number of BTB hits
system.cpu.branchPred.BTBLookups              9985868                       # Number of BTB lookups
system.cpu.branchPred.RASInCorrect                348                       # Number of incorrect RAS predictions.
system.cpu.branchPred.condIncorrect            155024                       # Number of conditional branches incorrect
system.cpu.branchPred.condPredicted          16514381                       # Number of conditional branches predicted
system.cpu.branchPred.indirectHits             300026                       # Number of indirect target hits.
system.cpu.branchPred.indirectLookups          540254                       # Number of indirect predictor lookups.
system.cpu.branchPred.indirectMisses           240228                       # Number of indirect misses.
system.cpu.branchPred.lookups                20621411                       # Number of BP lookups
system.cpu.branchPred.usedRAS                 1050690                       # Number of times the RAS was used to get a target.
system.cpu.branchPredindirectMispredicted         1210                       # Number of mispredicted indirect branches.
system.cpu.committedInsts                   100000000                       # Number of instructions committed
system.cpu.committedOps                     109431930                       # Number of ops (including micro ops) committed
system.cpu.cpi                               1.154754                       # CPI: cycles per instruction
system.cpu.discardedOps                        731946                       # Number of ops (including micro ops) which were discarded before commit
system.cpu.dtb.accesses                             0                       # DTB accesses
system.cpu.dtb.align_faults                         0                       # Number of TLB faults due to alignment restrictions
system.cpu.dtb.domain_faults                        0                       # Number of TLB faults due to domain restrictions
system.cpu.dtb.flush_entries                        0                       # Number of entries that have been flushed from TLB
system.cpu.dtb.flush_tlb                            0                       # Number of times complete TLB was flushed
system.cpu.dtb.flush_tlb_asid                       0                       # Number of times TLB was flushed by ASID
system.cpu.dtb.flush_tlb_mva                        0                       # Number of times TLB was flushed by MVA
system.cpu.dtb.flush_tlb_mva_asid                   0                       # Number of times TLB was flushed by MVA & ASID
system.cpu.dtb.hits                                 0                       # DTB hits
system.cpu.dtb.inst_accesses                        0                       # ITB inst accesses
system.cpu.dtb.inst_hits                            0                       # ITB inst hits
system.cpu.dtb.inst_misses                          0                       # ITB inst misses
system.cpu.dtb.misses                               0                       # DTB misses
system.cpu.dtb.perms_faults                         0                       # Number of TLB faults due to permissions restrictions
system.cpu.dtb.prefetch_faults                      0                       # Number of TLB faults due to prefetch
system.cpu.dtb.read_accesses                        0                       # DTB read accesses
system.cpu.dtb.read_hits                            0                       # DTB read hits
system.cpu.dtb.read_misses                          0                       # DTB read misses
system.cpu.dtb.stage2_mmu.stage2_tlb.accesses            0                       # DTB accesses
system.cpu.dtb.stage2_mmu.stage2_tlb.align_faults            0                       # Number of TLB faults due to alignment restrictions
system.cpu.dtb.stage2_mmu.stage2_tlb.domain_faults            0                       # Number of TLB faults due to domain restrictions
system.cpu.dtb.stage2_mmu.stage2_tlb.flush_entries            0                       # Number of entries that have been flushed from TLB
system.cpu.dtb.stage2_mmu.stage2_tlb.flush_tlb            0                       # Number of times complete TLB was flushed
system.cpu.dtb.stage2_mmu.stage2_tlb.flush_tlb_asid            0                       # Number of times TLB was flushed by ASID
system.cpu.dtb.stage2_mmu.stage2_tlb.flush_tlb_mva            0                       # Number of times TLB was flushed by MVA
system.cpu.dtb.stage2_mmu.stage2_tlb.flush_tlb_mva_asid            0                       # Number of times TLB was flushed by MVA & ASID
system.cpu.dtb.stage2_mmu.stage2_tlb.hits            0                       # DTB hits
system.cpu.dtb.stage2_mmu.stage2_tlb.inst_accesses            0                       # ITB inst accesses
system.cpu.dtb.stage2_mmu.stage2_tlb.inst_hits            0                       # ITB inst hits
system.cpu.dtb.stage2_mmu.stage2_tlb.inst_misses            0                       # ITB inst misses
system.cpu.dtb.stage2_mmu.stage2_tlb.misses            0                       # DTB misses
system.cpu.dtb.stage2_mmu.stage2_tlb.perms_faults            0                       # Number of TLB faults due to permissions restrictions
system.cpu.dtb.stage2_mmu.stage2_tlb.prefetch_faults            0                       # Number of TLB faults due to prefetch
system.cpu.dtb.stage2_mmu.stage2_tlb.read_accesses            0                       # DTB read accesses
system.cpu.dtb.stage2_mmu.stage2_tlb.read_hits            0                       # DTB read hits
system.cpu.dtb.stage2_mmu.stage2_tlb.read_misses            0                       # DTB read misses
system.cpu.dtb.stage2_mmu.stage2_tlb.walker.walkRequestOrigin_Requested::Data            0                       # Table walker requests started/completed, data/inst
system.cpu.dtb.stage2_mmu.stage2_tlb.walker.walkRequestOrigin_Requested::Inst            0                       # Table walker requests started/completed, data/inst
system.cpu.dtb.stage2_mmu.stage2_tlb.walker.walkRequestOrigin_Requested::total            0                       # Table walker requests started/completed, data/inst
system.cpu.dtb.stage2_mmu.stage2_tlb.walker.walkRequestOrigin_Completed::Data            0                       # Table walker requests started/completed, data/inst
system.cpu.dtb.stage2_mmu.stage2_tlb.walker.walkRequestOrigin_Completed::Inst            0                       # Table walker requests started/completed, data/inst
system.cpu.dtb.stage2_mmu.stage2_tlb.walker.walkRequestOrigin_Completed::total            0                       # Table walker requests started/completed, data/inst
system.cpu.dtb.stage2_mmu.stage2_tlb.walker.walkRequestOrigin::total            0                       # Table walker requests started/completed, data/inst
system.cpu.dtb.stage2_mmu.stage2_tlb.walker.walks            0                       # Table walker walks requested
system.cpu.dtb.stage2_mmu.stage2_tlb.write_accesses            0                       # DTB write accesses
system.cpu.dtb.stage2_mmu.stage2_tlb.write_hits            0                       # DTB write hits
system.cpu.dtb.stage2_mmu.stage2_tlb.write_misses            0                       # DTB write misses
system.cpu.dtb.walker.walkRequestOrigin_Requested::Data            0                       # Table walker requests started/completed, data/inst
system.cpu.dtb.walker.walkRequestOrigin_Requested::Inst            0                       # Table walker requests started/completed, data/inst
system.cpu.dtb.walker.walkRequestOrigin_Requested::total            0                       # Table walker requests started/completed, data/inst
system.cpu.dtb.walker.walkRequestOrigin_Completed::Data            0                       # Table walker requests started/completed, data/inst
system.cpu.dtb.walker.walkRequestOrigin_Completed::Inst            0                       # Table walker requests started/completed, data/inst
system.cpu.dtb.walker.walkRequestOrigin_Completed::total            0                       # Table walker requests started/completed, data/inst
system.cpu.dtb.walker.walkRequestOrigin::total            0                       # Table walker requests started/completed, data/inst
system.cpu.dtb.walker.walks                         0                       # Table walker walks requested
system.cpu.dtb.write_accesses                       0                       # DTB write accesses
system.cpu.dtb.write_hits                           0                       # DTB write hits
system.cpu.dtb.write_misses                         0                       # DTB write misses
system.cpu.fetch2.amo_instructions                  0                       # Number of memory atomic instructions successfully decoded
system.cpu.fetch2.fp_instructions                   0                       # Number of floating point instructions successfully decoded
system.cpu.fetch2.int_instructions           49946487                       # Number of integer instructions successfully decoded
system.cpu.fetch2.load_instructions          17195205                       # Number of memory load instructions successfully decoded
system.cpu.fetch2.store_instructions         10035065                       # Number of memory store instructions successfully decoded
system.cpu.fetch2.vec_instructions                  0                       # Number of SIMD instructions successfully decoded
system.cpu.idleCycles                         4099863                       # Total number of cycles that the object has spent stopped
system.cpu.ipc                               0.865985                       # IPC: instructions per cycle
system.cpu.itb.accesses                             0                       # DTB accesses
system.cpu.itb.align_faults                         0                       # Number of TLB faults due to alignment restrictions
system.cpu.itb.domain_faults                        0                       # Number of TLB faults due to domain restrictions
system.cpu.itb.flush_entries                        0                       # Number of entries that have been flushed from TLB
system.cpu.itb.flush_tlb                            0                       # Number of times complete TLB was flushed
system.cpu.itb.flush_tlb_asid                       0                       # Number of times TLB was flushed by ASID
system.cpu.itb.flush_tlb_mva                        0                       # Number of times TLB was flushed by MVA
system.cpu.itb.flush_tlb_mva_asid                   0                       # Number of times TLB was flushed by MVA & ASID
system.cpu.itb.hits                                 0                       # DTB hits
system.cpu.itb.inst_accesses                        0                       # ITB inst accesses
system.cpu.itb.inst_hits                            0                       # ITB inst hits
system.cpu.itb.inst_misses                          0                       # ITB inst misses
system.cpu.itb.misses                               0                       # DTB misses
system.cpu.itb.perms_faults                         0                       # Number of TLB faults due to permissions restrictions
system.cpu.itb.prefetch_faults                      0                       # Number of TLB faults due to prefetch
system.cpu.itb.read_accesses                        0                       # DTB read accesses
system.cpu.itb.read_hits                            0                       # DTB read hits
system.cpu.itb.read_misses                          0                       # DTB read misses
system.cpu.itb.stage2_mmu.stage2_tlb.accesses            0                       # DTB accesses
system.cpu.itb.stage2_mmu.stage2_tlb.align_faults            0                       # Number of TLB faults due to alignment restrictions
system.cpu.itb.stage2_mmu.stage2_tlb.domain_faults            0                       # Number of TLB faults due to domain restrictions
system.cpu.itb.stage2_mmu.stage2_tlb.flush_entries            0                       # Number of entries that have been flushed from TLB
system.cpu.itb.stage2_mmu.stage2_tlb.flush_tlb            0                       # Number of times complete TLB was flushed
system.cpu.itb.stage2_mmu.stage2_tlb.flush_tlb_asid            0                       # Number of times TLB was flushed by ASID
system.cpu.itb.stage2_mmu.stage2_tlb.flush_tlb_mva            0                       # Number of times TLB was flushed by MVA
system.cpu.itb.stage2_mmu.stage2_tlb.flush_tlb_mva_asid            0                       # Number of times TLB was flushed by MVA & ASID
system.cpu.itb.stage2_mmu.stage2_tlb.hits            0                       # DTB hits
system.cpu.itb.stage2_mmu.stage2_tlb.inst_accesses            0                       # ITB inst accesses
system.cpu.itb.stage2_mmu.stage2_tlb.inst_hits            0                       # ITB inst hits
system.cpu.itb.stage2_mmu.stage2_tlb.inst_misses            0                       # ITB inst misses
system.cpu.itb.stage2_mmu.stage2_tlb.misses            0                       # DTB misses
system.cpu.itb.stage2_mmu.stage2_tlb.perms_faults            0                       # Number of TLB faults due to permissions restrictions
system.cpu.itb.stage2_mmu.stage2_tlb.prefetch_faults            0                       # Number of TLB faults due to prefetch
system.cpu.itb.stage2_mmu.stage2_tlb.read_accesses            0                       # DTB read accesses
system.cpu.itb.stage2_mmu.stage2_tlb.read_hits            0                       # DTB read hits
system.cpu.itb.stage2_mmu.stage2_tlb.read_misses            0                       # DTB read misses
system.cpu.itb.stage2_mmu.stage2_tlb.walker.walkRequestOrigin_Requested::Data            0                       # Table walker requests started/completed, data/inst
system.cpu.itb.stage2_mmu.stage2_tlb.walker.walkRequestOrigin_Requested::Inst            0                       # Table walker requests started/completed, data/inst
system.cpu.itb.stage2_mmu.stage2_tlb.walker.walkRequestOrigin_Requested::total            0                       # Table walker requests started/completed, data/inst
system.cpu.itb.stage2_mmu.stage2_tlb.walker.walkRequestOrigin_Completed::Data            0                       # Table walker requests started/completed, data/inst
system.cpu.itb.stage2_mmu.stage2_tlb.walker.walkRequestOrigin_Completed::Inst            0                       # Table walker requests started/completed, data/inst
system.cpu.itb.stage2_mmu.stage2_tlb.walker.walkRequestOrigin_Completed::total            0                       # Table walker requests started/completed, data/inst
system.cpu.itb.stage2_mmu.stage2_tlb.walker.walkRequestOrigin::total            0                       # Table walker requests started/completed, data/inst
system.cpu.itb.stage2_mmu.stage2_tlb.walker.walks            0                       # Table walker walks requested
system.cpu.itb.stage2_mmu.stage2_tlb.write_accesses            0                       # DTB write accesses
system.cpu.itb.stage2_mmu.stage2_tlb.write_hits            0                       # DTB write hits
system.cpu.itb.stage2_mmu.stage2_tlb.write_misses            0                       # DTB write misses
system.cpu.itb.walker.walkRequestOrigin_Requested::Data            0                       # Table walker requests started/completed, data/inst
system.cpu.itb.walker.walkRequestOrigin_Requested::Inst            0                       # Table walker requests started/completed, data/inst
system.cpu.itb.walker.walkRequestOrigin_Requested::total            0                       # Table walker requests started/completed, data/inst
system.cpu.itb.walker.walkRequestOrigin_Completed::Data            0                       # Table walker requests started/completed, data/inst
system.cpu.itb.walker.walkRequestOrigin_Completed::Inst            0                       # Table walker requests started/completed, data/inst
system.cpu.itb.walker.walkRequestOrigin_Completed::total            0                       # Table walker requests started/completed, data/inst
system.cpu.itb.walker.walkRequestOrigin::total            0                       # Table walker requests started/completed, data/inst
system.cpu.itb.walker.walks                         0                       # Table walker walks requested
system.cpu.itb.write_accesses                       0                       # DTB write accesses
system.cpu.itb.write_hits                           0                       # DTB write hits
system.cpu.itb.write_misses                         0                       # DTB write misses
system.cpu.numCycles                        115475396                       # number of cpu cycles simulated
system.cpu.numFetchSuspends                         0                       # Number of times Execute suspended instruction fetching
system.cpu.numWorkItemsCompleted                    0                       # number of work items this cpu completed
system.cpu.numWorkItemsStarted                      0                       # number of work items this cpu started
system.cpu.op_class_0::No_OpClass                   0      0.00%      0.00% # Class of committed instruction
system.cpu.op_class_0::IntAlu                72955325     66.67%     66.67% # Class of committed instruction
system.cpu.op_class_0::IntMult                 568365      0.52%     67.19% # Class of committed instruction
system.cpu.op_class_0::IntDiv                       0      0.00%     67.19% # Class of committed instruction
system.cpu.op_class_0::FloatAdd                     0      0.00%     67.19% # Class of committed instruction
system.cpu.op_class_0::FloatCmp                     0      0.00%     67.19% # Class of committed instruction
system.cpu.op_class_0::FloatCvt                     0      0.00%     67.19% # Class of committed instruction
system.cpu.op_class_0::FloatMult                    0      0.00%     67.19% # Class of committed instruction
system.cpu.op_class_0::FloatMultAcc                 0      0.00%     67.19% # Class of committed instruction
system.cpu.op_class_0::FloatDiv                     0      0.00%     67.19% # Class of committed instruction
system.cpu.op_class_0::FloatMisc                    0      0.00%     67.19% # Class of committed instruction
system.cpu.op_class_0::FloatSqrt                    0      0.00%     67.19% # Class of committed instruction
system.cpu.op_class_0::SimdAdd                 241252      0.22%     67.41% # Class of committed instruction
system.cpu.op_class_0::SimdAddAcc                   0      0.00%     67.41% # Class of committed instruction
system.cpu.op_class_0::SimdAlu                 154720      0.14%     67.55% # Class of committed instruction
system.cpu.op_class_0::SimdCmp                 120626      0.11%     67.66% # Class of committed instruction
system.cpu.op_class_0::SimdCvt                      0      0.00%     67.66% # Class of committed instruction
system.cpu.op_class_0::SimdMisc                 44544      0.04%     67.70% # Class of committed instruction
system.cpu.op_class_0::SimdMult                     0      0.00%     67.70% # Class of committed instruction
system.cpu.op_class_0::SimdMultAcc                  0      0.00%     67.70% # Class of committed instruction
system.cpu.op_class_0::SimdShift                    0      0.00%     67.70% # Class of committed instruction
system.cpu.op_class_0::SimdShiftAcc                 0      0.00%     67.70% # Class of committed instruction
system.cpu.op_class_0::SimdDiv                      0      0.00%     67.70% # Class of committed instruction
system.cpu.op_class_0::SimdSqrt                     0      0.00%     67.70% # Class of committed instruction
system.cpu.op_class_0::SimdFloatAdd                 0      0.00%     67.70% # Class of committed instruction
system.cpu.op_class_0::SimdFloatAlu                 0      0.00%     67.70% # Class of committed instruction
system.cpu.op_class_0::SimdFloatCmp                 0      0.00%     67.70% # Class of committed instruction
system.cpu.op_class_0::SimdFloatCvt                 0      0.00%     67.70% # Class of committed instruction
system.cpu.op_class_0::SimdFloatDiv                 0      0.00%     67.70% # Class of committed instruction
system.cpu.op_class_0::SimdFloatMisc           166465      0.15%     67.85% # Class of committed instruction
system.cpu.op_class_0::SimdFloatMult                0      0.00%     67.85% # Class of committed instruction
system.cpu.op_class_0::SimdFloatMultAcc             0      0.00%     67.85% # Class of committed instruction
system.cpu.op_class_0::SimdFloatSqrt                0      0.00%     67.85% # Class of committed instruction
system.cpu.op_class_0::SimdReduceAdd                0      0.00%     67.85% # Class of committed instruction
system.cpu.op_class_0::SimdReduceAlu                0      0.00%     67.85% # Class of committed instruction
system.cpu.op_class_0::SimdReduceCmp                0      0.00%     67.85% # Class of committed instruction
system.cpu.op_class_0::SimdFloatReduceAdd            0      0.00%     67.85% # Class of committed instruction
system.cpu.op_class_0::SimdFloatReduceCmp            0      0.00%     67.85% # Class of committed instruction
system.cpu.op_class_0::SimdAes                      0      0.00%     67.85% # Class of committed instruction
system.cpu.op_class_0::SimdAesMix                   0      0.00%     67.85% # Class of committed instruction
system.cpu.op_class_0::SimdSha1Hash                 0      0.00%     67.85% # Class of committed instruction
system.cpu.op_class_0::SimdSha1Hash2                0      0.00%     67.85% # Class of committed instruction
system.cpu.op_class_0::SimdSha256Hash               0      0.00%     67.85% # Class of committed instruction
system.cpu.op_class_0::SimdSha256Hash2              0      0.00%     67.85% # Class of committed instruction
system.cpu.op_class_0::SimdShaSigma2                0      0.00%     67.85% # Class of committed instruction
system.cpu.op_class_0::SimdShaSigma3                0      0.00%     67.85% # Class of committed instruction
system.cpu.op_class_0::SimdPredAlu                  0      0.00%     67.85% # Class of committed instruction
system.cpu.op_class_0::MemRead               20646456     18.87%     86.72% # Class of committed instruction
system.cpu.op_class_0::MemWrite              14534177     13.28%    100.00% # Class of committed instruction
system.cpu.op_class_0::FloatMemRead                 0      0.00%    100.00% # Class of committed instruction
system.cpu.op_class_0::FloatMemWrite                0      0.00%    100.00% # Class of committed instruction
system.cpu.op_class_0::IprAccess                    0      0.00%    100.00% # Class of committed instruction
system.cpu.op_class_0::InstPrefetch                 0      0.00%    100.00% # Class of committed instruction
system.cpu.op_class_0::total                109431930                       # Class of committed instruction
system.cpu.tickCycles                       111375533                       # Number of cycles that the object actually ticked
system.cpu.workload.numSyscalls                    86                       # Number of system calls
system.membus.snoop_filter.hit_multi_requests            0                       # Number of requests hitting in the snoop filter with multiple (>1) holders of the requested data.
system.membus.snoop_filter.hit_multi_snoops            0                       # Number of snoops hitting in the snoop filter with multiple (>1) holders of the requested data.
system.membus.snoop_filter.hit_single_requests         6666                       # Number of requests hitting in the snoop filter with a single holder of the requested data.
system.membus.snoop_filter.hit_single_snoops            0                       # Number of snoops hitting in the snoop filter with a single holder of the requested data.
system.membus.snoop_filter.tot_requests         46531                       # Total number of requests made to the snoop filter.
system.membus.snoop_filter.tot_snoops               0                       # Total number of snoops made to the snoop filter.
system.tol2bus.snoop_filter.hit_multi_requests           23                       # Number of requests hitting in the snoop filter with multiple (>1) holders of the requested data.
system.tol2bus.snoop_filter.hit_multi_snoops            2                       # Number of snoops hitting in the snoop filter with multiple (>1) holders of the requested data.
system.tol2bus.snoop_filter.hit_single_requests        54320                       # Number of requests hitting in the snoop filter with a single holder of the requested data.
system.tol2bus.snoop_filter.hit_single_snoops          435                       # Number of snoops hitting in the snoop filter with a single holder of the requested data.
system.tol2bus.snoop_filter.tot_requests       110079                       # Total number of requests made to the snoop filter.
system.tol2bus.snoop_filter.tot_snoops            437                       # Total number of snoops made to the snoop filter.
system.membus.pwrStateResidencyTicks::UNDEFINED  57737698000                       # Cumulative time (in ticks) in various power states
system.membus.trans_dist::ReadResp               1054                       # Transaction distribution
system.membus.trans_dist::WritebackDirty         6509                       # Transaction distribution
system.membus.trans_dist::CleanEvict              156                       # Transaction distribution
system.membus.trans_dist::ReadExReq             38812                       # Transaction distribution
system.membus.trans_dist::ReadExResp            38812                       # Transaction distribution
system.membus.trans_dist::ReadSharedReq          1054                       # Transaction distribution
system.membus.pkt_count_system.l2.mem_side::system.mem_ctrls.port        86397                       # Packet count per connected master and slave (bytes)
system.membus.pkt_count::total                  86397                       # Packet count per connected master and slave (bytes)
system.membus.pkt_size_system.l2.mem_side::system.mem_ctrls.port      2968000                       # Cumulative packet size per connected master and slave (bytes)
system.membus.pkt_size::total                 2968000                       # Cumulative packet size per connected master and slave (bytes)
system.membus.snoops                                0                       # Total snoops (count)
system.membus.snoopTraffic                          0                       # Total snoop traffic (bytes)
system.membus.snoop_fanout::samples             39866                       # Request fanout histogram
system.membus.snoop_fanout::mean                    0                       # Request fanout histogram
system.membus.snoop_fanout::stdev                   0                       # Request fanout histogram
system.membus.snoop_fanout::underflows              0      0.00%      0.00% # Request fanout histogram
system.membus.snoop_fanout::0                   39866    100.00%    100.00% # Request fanout histogram
system.membus.snoop_fanout::1                       0      0.00%    100.00% # Request fanout histogram
system.membus.snoop_fanout::overflows               0      0.00%    100.00% # Request fanout histogram
system.membus.snoop_fanout::min_value               0                       # Request fanout histogram
system.membus.snoop_fanout::max_value               0                       # Request fanout histogram
system.membus.snoop_fanout::total               39866                       # Request fanout histogram
system.membus.respLayer1.occupancy          212077750                       # Layer occupancy (ticks)
system.membus.respLayer1.utilization              0.4                       # Layer utilization (%)
system.membus.reqLayer0.occupancy            79742500                       # Layer occupancy (ticks)
system.membus.reqLayer0.utilization               0.1                       # Layer utilization (%)
system.tol2bus.pwrStateResidencyTicks::UNDEFINED  57737698000                       # Cumulative time (in ticks) in various power states
system.tol2bus.trans_dist::ReadResp             16827                       # Transaction distribution
system.tol2bus.trans_dist::WritebackDirty        56925                       # Transaction distribution
system.tol2bus.trans_dist::WritebackClean          109                       # Transaction distribution
system.tol2bus.trans_dist::CleanEvict            4382                       # Transaction distribution
system.tol2bus.trans_dist::ReadExReq            38936                       # Transaction distribution
system.tol2bus.trans_dist::ReadExResp           38936                       # Transaction distribution
system.tol2bus.trans_dist::ReadCleanReq           532                       # Transaction distribution
system.tol2bus.trans_dist::ReadSharedReq        16295                       # Transaction distribution
system.tol2bus.pkt_count_system.cpu.icache.mem_side::system.l2.cpu_side         1173                       # Packet count per connected master and slave (bytes)
system.tol2bus.pkt_count_system.cpu.dcache.mem_side::system.l2.cpu_side       164669                       # Packet count per connected master and slave (bytes)
system.tol2bus.pkt_count::total                165842                       # Packet count per connected master and slave (bytes)
system.tol2bus.pkt_size_system.cpu.icache.mem_side::system.l2.cpu_side        41024                       # Cumulative packet size per connected master and slave (bytes)
system.tol2bus.pkt_size_system.cpu.dcache.mem_side::system.l2.cpu_side      6761408                       # Cumulative packet size per connected master and slave (bytes)
system.tol2bus.pkt_size::total                6802432                       # Cumulative packet size per connected master and slave (bytes)
system.tol2bus.snoops                            7100                       # Total snoops (count)
system.tol2bus.snoopTraffic                    416576                       # Total snoop traffic (bytes)
system.tol2bus.snoop_fanout::samples            62863                       # Request fanout histogram
system.tol2bus.snoop_fanout::mean            0.007413                       # Request fanout histogram
system.tol2bus.snoop_fanout::stdev           0.086150                       # Request fanout histogram
system.tol2bus.snoop_fanout::underflows             0      0.00%      0.00% # Request fanout histogram
system.tol2bus.snoop_fanout::0                  62399     99.26%     99.26% # Request fanout histogram
system.tol2bus.snoop_fanout::1                    462      0.73%    100.00% # Request fanout histogram
system.tol2bus.snoop_fanout::2                      2      0.00%    100.00% # Request fanout histogram
system.tol2bus.snoop_fanout::overflows              0      0.00%    100.00% # Request fanout histogram
system.tol2bus.snoop_fanout::min_value              0                       # Request fanout histogram
system.tol2bus.snoop_fanout::max_value              2                       # Request fanout histogram
system.tol2bus.snoop_fanout::total              62863                       # Request fanout histogram
system.tol2bus.reqLayer0.occupancy          105564500                       # Layer occupancy (ticks)
system.tol2bus.reqLayer0.utilization              0.2                       # Layer utilization (%)
system.tol2bus.respLayer1.occupancy          82848995                       # Layer occupancy (ticks)
system.tol2bus.respLayer1.utilization             0.1                       # Layer utilization (%)
system.tol2bus.respLayer0.occupancy            798499                       # Layer occupancy (ticks)
system.tol2bus.respLayer0.utilization             0.0                       # Layer utilization (%)
system.voltage_domain.voltage                       1                       # Voltage in Volts
system.clk_domain.clock                          1000                       # Clock period in ticks
system.l2.pwrStateResidencyTicks::UNDEFINED  57737698000                       # Cumulative time (in ticks) in various power states
system.l2.demand_hits::.cpu.inst                   19                       # number of demand (read+write) hits
system.l2.demand_hits::.cpu.data                15872                       # number of demand (read+write) hits
system.l2.demand_hits::total                    15891                       # number of demand (read+write) hits
system.l2.overall_hits::.cpu.inst                  19                       # number of overall hits
system.l2.overall_hits::.cpu.data               15872                       # number of overall hits
system.l2.overall_hits::total                   15891                       # number of overall hits
system.l2.demand_misses::.cpu.inst                513                       # number of demand (read+write) misses
system.l2.demand_misses::.cpu.data              39359                       # number of demand (read+write) misses
system.l2.demand_misses::total                  39872                       # number of demand (read+write) misses
system.l2.overall_misses::.cpu.inst               513                       # number of overall misses
system.l2.overall_misses::.cpu.data             39359                       # number of overall misses
system.l2.overall_misses::total                 39872                       # number of overall misses
system.l2.demand_miss_latency::.cpu.inst     39359500                       # number of demand (read+write) miss cycles
system.l2.demand_miss_latency::.cpu.data   3172350500                       # number of demand (read+write) miss cycles
system.l2.demand_miss_latency::total       3211710000                       # number of demand (read+write) miss cycles
system.l2.overall_miss_latency::.cpu.inst     39359500                       # number of overall miss cycles
system.l2.overall_miss_latency::.cpu.data   3172350500                       # number of overall miss cycles
system.l2.overall_miss_latency::total      3211710000                       # number of overall miss cycles
system.l2.demand_accesses::.cpu.inst              532                       # number of demand (read+write) accesses
system.l2.demand_accesses::.cpu.data            55231                       # number of demand (read+write) accesses
system.l2.demand_accesses::total                55763                       # number of demand (read+write) accesses
system.l2.overall_accesses::.cpu.inst             532                       # number of overall (read+write) accesses
system.l2.overall_accesses::.cpu.data           55231                       # number of overall (read+write) accesses
system.l2.overall_accesses::total               55763                       # number of overall (read+write) accesses
system.l2.demand_miss_rate::.cpu.inst        0.964286                       # miss rate for demand accesses
system.l2.demand_miss_rate::.cpu.data        0.712625                       # miss rate for demand accesses
system.l2.demand_miss_rate::total            0.715026                       # miss rate for demand accesses
system.l2.overall_miss_rate::.cpu.inst       0.964286                       # miss rate for overall accesses
system.l2.overall_miss_rate::.cpu.data       0.712625                       # miss rate for overall accesses
system.l2.overall_miss_rate::total           0.715026                       # miss rate for overall accesses
system.l2.demand_avg_miss_latency::.cpu.inst 76724.171540                       # average overall miss latency
system.l2.demand_avg_miss_latency::.cpu.data 80600.383648                       # average overall miss latency
system.l2.demand_avg_miss_latency::total 80550.511637                       # average overall miss latency
system.l2.overall_avg_miss_latency::.cpu.inst 76724.171540                       # average overall miss latency
system.l2.overall_avg_miss_latency::.cpu.data 80600.383648                       # average overall miss latency
system.l2.overall_avg_miss_latency::total 80550.511637                       # average overall miss latency
system.l2.blocked_cycles::no_mshrs                  0                       # number of cycles access was blocked
system.l2.blocked_cycles::no_targets                0                       # number of cycles access was blocked
system.l2.blocked::no_mshrs                         0                       # number of cycles access was blocked
system.l2.blocked::no_targets                       0                       # number of cycles access was blocked
system.l2.avg_blocked_cycles::no_mshrs            nan                       # average number of cycles each access was blocked
system.l2.avg_blocked_cycles::no_targets          nan                       # average number of cycles each access was blocked
system.l2.writebacks::.writebacks                6509                       # number of writebacks
system.l2.writebacks::total                      6509                       # number of writebacks
system.l2.demand_mshr_hits::.cpu.inst               1                       # number of demand (read+write) MSHR hits
system.l2.demand_mshr_hits::.cpu.data               5                       # number of demand (read+write) MSHR hits
system.l2.demand_mshr_hits::total                   6                       # number of demand (read+write) MSHR hits
system.l2.overall_mshr_hits::.cpu.inst              1                       # number of overall MSHR hits
system.l2.overall_mshr_hits::.cpu.data              5                       # number of overall MSHR hits
system.l2.overall_mshr_hits::total                  6                       # number of overall MSHR hits
system.l2.demand_mshr_misses::.cpu.inst           512                       # number of demand (read+write) MSHR misses
system.l2.demand_mshr_misses::.cpu.data         39354                       # number of demand (read+write) MSHR misses
system.l2.demand_mshr_misses::total             39866                       # number of demand (read+write) MSHR misses
system.l2.overall_mshr_misses::.cpu.inst          512                       # number of overall MSHR misses
system.l2.overall_mshr_misses::.cpu.data        39354                       # number of overall MSHR misses
system.l2.overall_mshr_misses::total            39866                       # number of overall MSHR misses
system.l2.demand_mshr_miss_latency::.cpu.inst     34175000                       # number of demand (read+write) MSHR miss cycles
system.l2.demand_mshr_miss_latency::.cpu.data   2778483500                       # number of demand (read+write) MSHR miss cycles
system.l2.demand_mshr_miss_latency::total   2812658500                       # number of demand (read+write) MSHR miss cycles
system.l2.overall_mshr_miss_latency::.cpu.inst     34175000                       # number of overall MSHR miss cycles
system.l2.overall_mshr_miss_latency::.cpu.data   2778483500                       # number of overall MSHR miss cycles
system.l2.overall_mshr_miss_latency::total   2812658500                       # number of overall MSHR miss cycles
system.l2.demand_mshr_miss_rate::.cpu.inst     0.962406                       # mshr miss rate for demand accesses
system.l2.demand_mshr_miss_rate::.cpu.data     0.712535                       # mshr miss rate for demand accesses
system.l2.demand_mshr_miss_rate::total       0.714918                       # mshr miss rate for demand accesses
system.l2.overall_mshr_miss_rate::.cpu.inst     0.962406                       # mshr miss rate for overall accesses
system.l2.overall_mshr_miss_rate::.cpu.data     0.712535                       # mshr miss rate for overall accesses
system.l2.overall_mshr_miss_rate::total      0.714918                       # mshr miss rate for overall accesses
system.l2.demand_avg_mshr_miss_latency::.cpu.inst 66748.046875                       # average overall mshr miss latency
system.l2.demand_avg_mshr_miss_latency::.cpu.data 70602.314885                       # average overall mshr miss latency
system.l2.demand_avg_mshr_miss_latency::total 70552.814428                       # average overall mshr miss latency
system.l2.overall_avg_mshr_miss_latency::.cpu.inst 66748.046875                       # average overall mshr miss latency
system.l2.overall_avg_mshr_miss_latency::.cpu.data 70602.314885                       # average overall mshr miss latency
system.l2.overall_avg_mshr_miss_latency::total 70552.814428                       # average overall mshr miss latency
system.l2.replacements                           7100                       # number of replacements
system.l2.WritebackDirty_hits::.writebacks        50416                       # number of WritebackDirty hits
system.l2.WritebackDirty_hits::total            50416                       # number of WritebackDirty hits
system.l2.WritebackDirty_accesses::.writebacks        50416                       # number of WritebackDirty accesses(hits+misses)
system.l2.WritebackDirty_accesses::total        50416                       # number of WritebackDirty accesses(hits+misses)
system.l2.WritebackClean_hits::.writebacks          104                       # number of WritebackClean hits
system.l2.WritebackClean_hits::total              104                       # number of WritebackClean hits
system.l2.WritebackClean_accesses::.writebacks          104                       # number of WritebackClean accesses(hits+misses)
system.l2.WritebackClean_accesses::total          104                       # number of WritebackClean accesses(hits+misses)
system.l2.CleanEvict_mshr_misses::.writebacks            2                       # number of CleanEvict MSHR misses
system.l2.CleanEvict_mshr_misses::total             2                       # number of CleanEvict MSHR misses
system.l2.CleanEvict_mshr_miss_rate::.writebacks          inf                       # mshr miss rate for CleanEvict accesses
system.l2.CleanEvict_mshr_miss_rate::total          inf                       # mshr miss rate for CleanEvict accesses
system.l2.ReadExReq_hits::.cpu.data               124                       # number of ReadExReq hits
system.l2.ReadExReq_hits::total                   124                       # number of ReadExReq hits
system.l2.ReadExReq_misses::.cpu.data           38812                       # number of ReadExReq misses
system.l2.ReadExReq_misses::total               38812                       # number of ReadExReq misses
system.l2.ReadExReq_miss_latency::.cpu.data   3122162500                       # number of ReadExReq miss cycles
system.l2.ReadExReq_miss_latency::total    3122162500                       # number of ReadExReq miss cycles
system.l2.ReadExReq_accesses::.cpu.data         38936                       # number of ReadExReq accesses(hits+misses)
system.l2.ReadExReq_accesses::total             38936                       # number of ReadExReq accesses(hits+misses)
system.l2.ReadExReq_miss_rate::.cpu.data     0.996815                       # miss rate for ReadExReq accesses
system.l2.ReadExReq_miss_rate::total         0.996815                       # miss rate for ReadExReq accesses
system.l2.ReadExReq_avg_miss_latency::.cpu.data 80443.226322                       # average ReadExReq miss latency
system.l2.ReadExReq_avg_miss_latency::total 80443.226322                       # average ReadExReq miss latency
system.l2.ReadExReq_mshr_misses::.cpu.data        38812                       # number of ReadExReq MSHR misses
system.l2.ReadExReq_mshr_misses::total          38812                       # number of ReadExReq MSHR misses
system.l2.ReadExReq_mshr_miss_latency::.cpu.data   2734042500                       # number of ReadExReq MSHR miss cycles
system.l2.ReadExReq_mshr_miss_latency::total   2734042500                       # number of ReadExReq MSHR miss cycles
system.l2.ReadExReq_mshr_miss_rate::.cpu.data     0.996815                       # mshr miss rate for ReadExReq accesses
system.l2.ReadExReq_mshr_miss_rate::total     0.996815                       # mshr miss rate for ReadExReq accesses
system.l2.ReadExReq_avg_mshr_miss_latency::.cpu.data 70443.226322                       # average ReadExReq mshr miss latency
system.l2.ReadExReq_avg_mshr_miss_latency::total 70443.226322                       # average ReadExReq mshr miss latency
system.l2.ReadCleanReq_hits::.cpu.inst             19                       # number of ReadCleanReq hits
system.l2.ReadCleanReq_hits::total                 19                       # number of ReadCleanReq hits
system.l2.ReadCleanReq_misses::.cpu.inst          513                       # number of ReadCleanReq misses
system.l2.ReadCleanReq_misses::total              513                       # number of ReadCleanReq misses
system.l2.ReadCleanReq_miss_latency::.cpu.inst     39359500                       # number of ReadCleanReq miss cycles
system.l2.ReadCleanReq_miss_latency::total     39359500                       # number of ReadCleanReq miss cycles
system.l2.ReadCleanReq_accesses::.cpu.inst          532                       # number of ReadCleanReq accesses(hits+misses)
system.l2.ReadCleanReq_accesses::total            532                       # number of ReadCleanReq accesses(hits+misses)
system.l2.ReadCleanReq_miss_rate::.cpu.inst     0.964286                       # miss rate for ReadCleanReq accesses
system.l2.ReadCleanReq_miss_rate::total      0.964286                       # miss rate for ReadCleanReq accesses
system.l2.ReadCleanReq_avg_miss_latency::.cpu.inst 76724.171540                       # average ReadCleanReq miss latency
system.l2.ReadCleanReq_avg_miss_latency::total 76724.171540                       # average ReadCleanReq miss latency
system.l2.ReadCleanReq_mshr_hits::.cpu.inst            1                       # number of ReadCleanReq MSHR hits
system.l2.ReadCleanReq_mshr_hits::total             1                       # number of ReadCleanReq MSHR hits
system.l2.ReadCleanReq_mshr_misses::.cpu.inst          512                       # number of ReadCleanReq MSHR misses
system.l2.ReadCleanReq_mshr_misses::total          512                       # number of ReadCleanReq MSHR misses
system.l2.ReadCleanReq_mshr_miss_latency::.cpu.inst     34175000                       # number of ReadCleanReq MSHR miss cycles
system.l2.ReadCleanReq_mshr_miss_latency::total     34175000                       # number of ReadCleanReq MSHR miss cycles
system.l2.ReadCleanReq_mshr_miss_rate::.cpu.inst     0.962406                       # mshr miss rate for ReadCleanReq accesses
system.l2.ReadCleanReq_mshr_miss_rate::total     0.962406                       # mshr miss rate for ReadCleanReq accesses
system.l2.ReadCleanReq_avg_mshr_miss_latency::.cpu.inst 66748.046875                       # average ReadCleanReq mshr miss latency
system.l2.ReadCleanReq_avg_mshr_miss_latency::total 66748.046875                       # average ReadCleanReq mshr miss latency
system.l2.ReadSharedReq_hits::.cpu.data         15748                       # number of ReadSharedReq hits
system.l2.ReadSharedReq_hits::total             15748                       # number of ReadSharedReq hits
system.l2.ReadSharedReq_misses::.cpu.data          547                       # number of ReadSharedReq misses
system.l2.ReadSharedReq_misses::total             547                       # number of ReadSharedReq misses
system.l2.ReadSharedReq_miss_latency::.cpu.data     50188000                       # number of ReadSharedReq miss cycles
system.l2.ReadSharedReq_miss_latency::total     50188000                       # number of ReadSharedReq miss cycles
system.l2.ReadSharedReq_accesses::.cpu.data        16295                       # number of ReadSharedReq accesses(hits+misses)
system.l2.ReadSharedReq_accesses::total         16295                       # number of ReadSharedReq accesses(hits+misses)
system.l2.ReadSharedReq_miss_rate::.cpu.data     0.033569                       # miss rate for ReadSharedReq accesses
system.l2.ReadSharedReq_miss_rate::total     0.033569                       # miss rate for ReadSharedReq accesses
system.l2.ReadSharedReq_avg_miss_latency::.cpu.data 91751.371115                       # average ReadSharedReq miss latency
system.l2.ReadSharedReq_avg_miss_latency::total 91751.371115                       # average ReadSharedReq miss latency
system.l2.ReadSharedReq_mshr_hits::.cpu.data            5                       # number of ReadSharedReq MSHR hits
system.l2.ReadSharedReq_mshr_hits::total            5                       # number of ReadSharedReq MSHR hits
system.l2.ReadSharedReq_mshr_misses::.cpu.data          542                       # number of ReadSharedReq MSHR misses
system.l2.ReadSharedReq_mshr_misses::total          542                       # number of ReadSharedReq MSHR misses
system.l2.ReadSharedReq_mshr_miss_latency::.cpu.data     44441000                       # number of ReadSharedReq MSHR miss cycles
system.l2.ReadSharedReq_mshr_miss_latency::total     44441000                       # number of ReadSharedReq MSHR miss cycles
system.l2.ReadSharedReq_mshr_miss_rate::.cpu.data     0.033262                       # mshr miss rate for ReadSharedReq accesses
system.l2.ReadSharedReq_mshr_miss_rate::total     0.033262                       # mshr miss rate for ReadSharedReq accesses
system.l2.ReadSharedReq_avg_mshr_miss_latency::.cpu.data 81994.464945                       # average ReadSharedReq mshr miss latency
system.l2.ReadSharedReq_avg_mshr_miss_latency::total 81994.464945                       # average ReadSharedReq mshr miss latency
system.l2.tags.pwrStateResidencyTicks::UNDEFINED  57737698000                       # Cumulative time (in ticks) in various power states
system.l2.tags.tagsinuse                 26016.053878                       # Cycle average of tags in use
system.l2.tags.total_refs                      110048                       # Total number of references to valid blocks.
system.l2.tags.sampled_refs                     39868                       # Sample count of references to valid blocks.
system.l2.tags.avg_refs                      2.760309                       # Average number of references to valid blocks.
system.l2.tags.warmup_cycle                     77000                       # Cycle when the warmup percentage was hit.
system.l2.tags.occ_blocks::.writebacks       0.255449                       # Average occupied blocks per requestor
system.l2.tags.occ_blocks::.cpu.inst       304.137910                       # Average occupied blocks per requestor
system.l2.tags.occ_blocks::.cpu.data     25711.660519                       # Average occupied blocks per requestor
system.l2.tags.occ_percent::.writebacks      0.000008                       # Average percentage of cache occupancy
system.l2.tags.occ_percent::.cpu.inst        0.009282                       # Average percentage of cache occupancy
system.l2.tags.occ_percent::.cpu.data        0.784658                       # Average percentage of cache occupancy
system.l2.tags.occ_percent::total            0.793947                       # Average percentage of cache occupancy
system.l2.tags.occ_task_id_blocks::1024         32768                       # Occupied blocks per task id
system.l2.tags.age_task_id_blocks_1024::0            4                       # Occupied blocks per task id
system.l2.tags.age_task_id_blocks_1024::1           34                       # Occupied blocks per task id
system.l2.tags.age_task_id_blocks_1024::2          402                       # Occupied blocks per task id
system.l2.tags.age_task_id_blocks_1024::3         3678                       # Occupied blocks per task id
system.l2.tags.age_task_id_blocks_1024::4        28650                       # Occupied blocks per task id
system.l2.tags.occ_task_id_percent::1024            1                       # Percentage of cache occupancy per task id
system.l2.tags.tag_accesses                    920316                       # Number of tag accesses
system.l2.tags.data_accesses                   920316                       # Number of data accesses
system.cpu_voltage_domain.voltage                   1                       # Voltage in Volts
system.mem_ctrls.pwrStateResidencyTicks::UNDEFINED  57737698000                       # Cumulative time (in ticks) in various power states
system.mem_ctrls.bytes_read::.cpu.inst          32768                       # Number of bytes read from this memory
system.mem_ctrls.bytes_read::.cpu.data        2518656                       # Number of bytes read from this memory
system.mem_ctrls.bytes_read::total            2551424                       # Number of bytes read from this memory
system.mem_ctrls.bytes_inst_read::.cpu.inst        32768                       # Number of instructions bytes read from this memory
system.mem_ctrls.bytes_inst_read::total         32768                       # Number of instructions bytes read from this memory
system.mem_ctrls.bytes_written::.writebacks       416576                       # Number of bytes written to this memory
system.mem_ctrls.bytes_written::total          416576                       # Number of bytes written to this memory
system.mem_ctrls.num_reads::.cpu.inst             512                       # Number of read requests responded to by this memory
system.mem_ctrls.num_reads::.cpu.data           39354                       # Number of read requests responded to by this memory
system.mem_ctrls.num_reads::total               39866                       # Number of read requests responded to by this memory
system.mem_ctrls.num_writes::.writebacks         6509                       # Number of write requests responded to by this memory
system.mem_ctrls.num_writes::total               6509                       # Number of write requests responded to by this memory
system.mem_ctrls.bw_read::.cpu.inst            567532                       # Total read bandwidth from this memory (bytes/s)
system.mem_ctrls.bw_read::.cpu.data          43622383                       # Total read bandwidth from this memory (bytes/s)
system.mem_ctrls.bw_read::total              44189916                       # Total read bandwidth from this memory (bytes/s)
system.mem_ctrls.bw_inst_read::.cpu.inst       567532                       # Instruction read bandwidth from this memory (bytes/s)
system.mem_ctrls.bw_inst_read::total           567532                       # Instruction read bandwidth from this memory (bytes/s)
system.mem_ctrls.bw_write::.writebacks        7214974                       # Write bandwidth from this memory (bytes/s)
system.mem_ctrls.bw_write::total              7214974                       # Write bandwidth from this memory (bytes/s)
system.mem_ctrls.bw_total::.writebacks        7214974                       # Total bandwidth to/from this memory (bytes/s)
system.mem_ctrls.bw_total::.cpu.inst           567532                       # Total bandwidth to/from this memory (bytes/s)
system.mem_ctrls.bw_total::.cpu.data         43622383                       # Total bandwidth to/from this memory (bytes/s)
system.mem_ctrls.bw_total::total             51404890                       # Total bandwidth to/from this memory (bytes/s)
system.mem_ctrls.avgPriority_.writebacks::samples      6509.00                       # Average QoS priority value for accepted requests
system.mem_ctrls.avgPriority_.cpu.inst::samples       512.00                       # Average QoS priority value for accepted requests
system.mem_ctrls.avgPriority_.cpu.data::samples     39351.00                       # Average QoS priority value for accepted requests
system.mem_ctrls.priorityMinLatency      0.000000018750                       # per QoS priority minimum request to response latency (s)
system.mem_ctrls.priorityMaxLatency      0.017706308500                       # per QoS priority maximum request to response latency (s)
system.mem_ctrls.numReadWriteTurnArounds          360                       # Number of turnarounds from READ to WRITE
system.mem_ctrls.numWriteReadTurnArounds          360                       # Number of turnarounds from WRITE to READ
system.mem_ctrls.numStayReadState              101034                       # Number of times bus staying in READ state
system.mem_ctrls.numStayWriteState               6137                       # Number of times bus staying in WRITE state
system.mem_ctrls.readReqs                       39866                       # Number of read requests accepted
system.mem_ctrls.writeReqs                       6509                       # Number of write requests accepted
system.mem_ctrls.readBursts                     39866                       # Number of DRAM read bursts, including those serviced by the write queue
system.mem_ctrls.writeBursts                     6509                       # Number of DRAM write bursts, including those merged in the write queue
system.mem_ctrls.servicedByWrQ                      3                       # Number of DRAM read bursts serviced by the write queue
system.mem_ctrls.mergedWrBursts                     0                       # Number of DRAM write bursts merged with an existing one
system.mem_ctrls.neitherReadNorWriteReqs            0                       # Number of requests that are neither read nor write
system.mem_ctrls.perBankRdBursts::0              2477                       # Per bank write bursts
system.mem_ctrls.perBankRdBursts::1              2365                       # Per bank write bursts
system.mem_ctrls.perBankRdBursts::2              2347                       # Per bank write bursts
system.mem_ctrls.perBankRdBursts::3              2611                       # Per bank write bursts
system.mem_ctrls.perBankRdBursts::4              2682                       # Per bank write bursts
system.mem_ctrls.perBankRdBursts::5              2456                       # Per bank write bursts
system.mem_ctrls.perBankRdBursts::6              2446                       # Per bank write bursts
system.mem_ctrls.perBankRdBursts::7              2471                       # Per bank write bursts
system.mem_ctrls.perBankRdBursts::8              2473                       # Per bank write bursts
system.mem_ctrls.perBankRdBursts::9              2505                       # Per bank write bursts
system.mem_ctrls.perBankRdBursts::10             2488                       # Per bank write bursts
system.mem_ctrls.perBankRdBursts::11             2514                       # Per bank write bursts
system.mem_ctrls.perBankRdBursts::12             2509                       # Per bank write bursts
system.mem_ctrls.perBankRdBursts::13             2471                       # Per bank write bursts
system.mem_ctrls.perBankRdBursts::14             2553                       # Per bank write bursts
system.mem_ctrls.perBankRdBursts::15             2495                       # Per bank write bursts
system.mem_ctrls.perBankWrBursts::0               360                       # Per bank write bursts
system.mem_ctrls.perBankWrBursts::1               287                       # Per bank write bursts
system.mem_ctrls.perBankWrBursts::2               285                       # Per bank write bursts
system.mem_ctrls.perBankWrBursts::3               480                       # Per bank write bursts
system.mem_ctrls.perBankWrBursts::4               610                       # Per bank write bursts
system.mem_ctrls.perBankWrBursts::5               407                       # Per bank write bursts
system.mem_ctrls.perBankWrBursts::6               398                       # Per bank write bursts
system.mem_ctrls.perBankWrBursts::7               396                       # Per bank write bursts
system.mem_ctrls.perBankWrBursts::8               402                       # Per bank write bursts
system.mem_ctrls.perBankWrBursts::9               404                       # Per bank write bursts
system.mem_ctrls.perBankWrBursts::10              404                       # Per bank write bursts
system.mem_ctrls.perBankWrBursts::11              403                       # Per bank write bursts
system.mem_ctrls.perBankWrBursts::12              409                       # Per bank write bursts
system.mem_ctrls.perBankWrBursts::13              402                       # Per bank write bursts
system.mem_ctrls.perBankWrBursts::14              431                       # Per bank write bursts
system.mem_ctrls.perBankWrBursts::15              413                       # Per bank write bursts
system.mem_ctrls.avgRdQLen                       1.00                       # Average read queue length when enqueuing
system.mem_ctrls.avgWrQLen                      11.93                       # Average write queue length when enqueuing
system.mem_ctrls.totQLat                    430739250                       # Total ticks spent queuing
system.mem_ctrls.totBusLat                  199315000                       # Total ticks spent in databus transfers
system.mem_ctrls.totMemAccLat              1178170500                       # Total ticks spent from burst creation until serviced by the DRAM
system.mem_ctrls.avgQLat                     10805.49                       # Average queueing delay per DRAM burst
system.mem_ctrls.avgBusLat                    5000.00                       # Average bus latency per DRAM burst
system.mem_ctrls.avgMemAccLat                29555.49                       # Average memory access latency per DRAM burst
system.mem_ctrls.numRdRetry                         0                       # Number of times read queue was full causing retry
system.mem_ctrls.numWrRetry                         0                       # Number of times write queue was full causing retry
system.mem_ctrls.readRowHits                    28557                       # Number of row buffer hits during reads
system.mem_ctrls.writeRowHits                    5509                       # Number of row buffer hits during writes
system.mem_ctrls.readRowHitRate                 71.64                       # Row buffer hit rate for reads
system.mem_ctrls.writeRowHitRate                84.64                       # Row buffer hit rate for writes
system.mem_ctrls.readPktSize::0                     0                       # Read request sizes (log2)
system.mem_ctrls.readPktSize::1                     0                       # Read request sizes (log2)
system.mem_ctrls.readPktSize::2                     0                       # Read request sizes (log2)
system.mem_ctrls.readPktSize::3                     0                       # Read request sizes (log2)
system.mem_ctrls.readPktSize::4                     0                       # Read request sizes (log2)
system.mem_ctrls.readPktSize::5                     0                       # Read request sizes (log2)
system.mem_ctrls.readPktSize::6                 39866                       # Read request sizes (log2)
system.mem_ctrls.writePktSize::0                    0                       # Write request sizes (log2)
system.mem_ctrls.writePktSize::1                    0                       # Write request sizes (log2)
system.mem_ctrls.writePktSize::2                    0                       # Write request sizes (log2)
system.mem_ctrls.writePktSize::3                    0                       # Write request sizes (log2)
system.mem_ctrls.writePktSize::4                    0                       # Write request sizes (log2)
system.mem_ctrls.writePktSize::5                    0                       # Write request sizes (log2)
system.mem_ctrls.writePktSize::6                 6509                       # Write request sizes (log2)
system.mem_ctrls.rdQLenPdf::0                   39672                       # What read queue length does an incoming req see
system.mem_ctrls.rdQLenPdf::1                     184                       # What read queue length does an incoming req see
system.mem_ctrls.rdQLenPdf::2                       7                       # What read queue length does an incoming req see
system.mem_ctrls.rdQLenPdf::3                       0                       # What read queue length does an incoming req see
system.mem_ctrls.rdQLenPdf::4                       0                       # What read queue length does an incoming req see
system.mem_ctrls.rdQLenPdf::5                       0                       # What read queue length does an incoming req see
system.mem_ctrls.rdQLenPdf::6                       0                       # What read queue length does an incoming req see
system.mem_ctrls.rdQLenPdf::7                       0                       # What read queue length does an incoming req see
system.mem_ctrls.rdQLenPdf::8                       0                       # What read queue length does an incoming req see
system.mem_ctrls.rdQLenPdf::9                       0                       # What read queue length does an incoming req see
system.mem_ctrls.rdQLenPdf::10                      0                       # What read queue length does an incoming req see
system.mem_ctrls.rdQLenPdf::11                      0                       # What read queue length does an incoming req see
system.mem_ctrls.rdQLenPdf::12                      0                       # What read queue length does an incoming req see
system.mem_ctrls.rdQLenPdf::13                      0                       # What read queue length does an incoming req see
system.mem_ctrls.rdQLenPdf::14                      0                       # What read queue length does an incoming req see
system.mem_ctrls.rdQLenPdf::15                      0                       # What read queue length does an incoming req see
system.mem_ctrls.rdQLenPdf::16                      0                       # What read queue length does an incoming req see
system.mem_ctrls.rdQLenPdf::17                      0                       # What read queue length does an incoming req see
system.mem_ctrls.rdQLenPdf::18                      0                       # What read queue length does an incoming req see
system.mem_ctrls.rdQLenPdf::19                      0                       # What read queue length does an incoming req see
system.mem_ctrls.rdQLenPdf::20                      0                       # What read queue length does an incoming req see
system.mem_ctrls.rdQLenPdf::21                      0                       # What read queue length does an incoming req see
system.mem_ctrls.rdQLenPdf::22                      0                       # What read queue length does an incoming req see
system.mem_ctrls.rdQLenPdf::23                      0                       # What read queue length does an incoming req see
system.mem_ctrls.rdQLenPdf::24                      0                       # What read queue length does an incoming req see
system.mem_ctrls.rdQLenPdf::25                      0                       # What read queue length does an incoming req see
system.mem_ctrls.rdQLenPdf::26                      0                       # What read queue length does an incoming req see
system.mem_ctrls.rdQLenPdf::27                      0                       # What read queue length does an incoming req see
system.mem_ctrls.rdQLenPdf::28                      0                       # What read queue length does an incoming req see
system.mem_ctrls.rdQLenPdf::29                      0                       # What read queue length does an incoming req see
system.mem_ctrls.rdQLenPdf::30                      0                       # What read queue length does an incoming req see
system.mem_ctrls.rdQLenPdf::31                      0                       # What read queue length does an incoming req see
system.mem_ctrls.wrQLenPdf::0                       1                       # What write queue length does an incoming req see
system.mem_ctrls.wrQLenPdf::1                       1                       # What write queue length does an incoming req see
system.mem_ctrls.wrQLenPdf::2                       1                       # What write queue length does an incoming req see
system.mem_ctrls.wrQLenPdf::3                       1                       # What write queue length does an incoming req see
system.mem_ctrls.wrQLenPdf::4                       1                       # What write queue length does an incoming req see
system.mem_ctrls.wrQLenPdf::5                       1                       # What write queue length does an incoming req see
system.mem_ctrls.wrQLenPdf::6                       1                       # What write queue length does an incoming req see
system.mem_ctrls.wrQLenPdf::7                       1                       # What write queue length does an incoming req see
system.mem_ctrls.wrQLenPdf::8                       1                       # What write queue length does an incoming req see
system.mem_ctrls.wrQLenPdf::9                       1                       # What write queue length does an incoming req see
system.mem_ctrls.wrQLenPdf::10                      1                       # What write queue length does an incoming req see
system.mem_ctrls.wrQLenPdf::11                      1                       # What write queue length does an incoming req see
system.mem_ctrls.wrQLenPdf::12                      1                       # What write queue length does an incoming req see
system.mem_ctrls.wrQLenPdf::13                      1                       # What write queue length does an incoming req see
system.mem_ctrls.wrQLenPdf::14                      1                       # What write queue length does an incoming req see
system.mem_ctrls.wrQLenPdf::15                    360                       # What write queue length does an incoming req see
system.mem_ctrls.wrQLenPdf::16                    360                       # What write queue length does an incoming req see
system.mem_ctrls.wrQLenPdf::17                    361                       # What write queue length does an incoming req see
system.mem_ctrls.wrQLenPdf::18                    360                       # What write queue length does an incoming req see
system.mem_ctrls.wrQLenPdf::19                    360                       # What write queue length does an incoming req see
system.mem_ctrls.wrQLenPdf::20                    360                       # What write queue length does an incoming req see
system.mem_ctrls.wrQLenPdf::21                    361                       # What write queue length does an incoming req see
system.mem_ctrls.wrQLenPdf::22                    360                       # What write queue length does an incoming req see
system.mem_ctrls.wrQLenPdf::23                    362                       # What write queue length does an incoming req see
system.mem_ctrls.wrQLenPdf::24                    363                       # What write queue length does an incoming req see
system.mem_ctrls.wrQLenPdf::25                    363                       # What write queue length does an incoming req see
system.mem_ctrls.wrQLenPdf::26                    361                       # What write queue length does an incoming req see
system.mem_ctrls.wrQLenPdf::27                    360                       # What write queue length does an incoming req see
system.mem_ctrls.wrQLenPdf::28                    360                       # What write queue length does an incoming req see
system.mem_ctrls.wrQLenPdf::29                    363                       # What write queue length does an incoming req see
system.mem_ctrls.wrQLenPdf::30                    360                       # What write queue length does an incoming req see
system.mem_ctrls.wrQLenPdf::31                    360                       # What write queue length does an incoming req see
system.mem_ctrls.wrQLenPdf::32                    360                       # What write queue length does an incoming req see
system.mem_ctrls.wrQLenPdf::33                      0                       # What write queue length does an incoming req see
system.mem_ctrls.wrQLenPdf::34                      0                       # What write queue length does an incoming req see
system.mem_ctrls.wrQLenPdf::35                      0                       # What write queue length does an incoming req see
system.mem_ctrls.wrQLenPdf::36                      0                       # What write queue length does an incoming req see
system.mem_ctrls.wrQLenPdf::37                      0                       # What write queue length does an incoming req see
system.mem_ctrls.wrQLenPdf::38                      0                       # What write queue length does an incoming req see
system.mem_ctrls.wrQLenPdf::39                      0                       # What write queue length does an incoming req see
system.mem_ctrls.wrQLenPdf::40                      0                       # What write queue length does an incoming req see
system.mem_ctrls.wrQLenPdf::41                      0                       # What write queue length does an incoming req see
system.mem_ctrls.wrQLenPdf::42                      0                       # What write queue length does an incoming req see
system.mem_ctrls.wrQLenPdf::43                      0                       # What write queue length does an incoming req see
system.mem_ctrls.wrQLenPdf::44                      0                       # What write queue length does an incoming req see
system.mem_ctrls.wrQLenPdf::45                      0                       # What write queue length does an incoming req see
system.mem_ctrls.wrQLenPdf::46                      0                       # What write queue length does an incoming req see
system.mem_ctrls.wrQLenPdf::47                      0                       # What write queue length does an incoming req see
system.mem_ctrls.wrQLenPdf::48                      0                       # What write queue length does an incoming req see
system.mem_ctrls.wrQLenPdf::49                      0                       # What write queue length does an incoming req see
system.mem_ctrls.wrQLenPdf::50                      0                       # What write queue length does an incoming req see
system.mem_ctrls.wrQLenPdf::51                      0                       # What write queue length does an incoming req see
system.mem_ctrls.wrQLenPdf::52                      0                       # What write queue length does an incoming req see
system.mem_ctrls.wrQLenPdf::53                      0                       # What write queue length does an incoming req see
system.mem_ctrls.wrQLenPdf::54                      0                       # What write queue length does an incoming req see
system.mem_ctrls.wrQLenPdf::55                      0                       # What write queue length does an incoming req see
system.mem_ctrls.wrQLenPdf::56                      0                       # What write queue length does an incoming req see
system.mem_ctrls.wrQLenPdf::57                      0                       # What write queue length does an incoming req see
system.mem_ctrls.wrQLenPdf::58                      0                       # What write queue length does an incoming req see
system.mem_ctrls.wrQLenPdf::59                      0                       # What write queue length does an incoming req see
system.mem_ctrls.wrQLenPdf::60                      0                       # What write queue length does an incoming req see
system.mem_ctrls.wrQLenPdf::61                      0                       # What write queue length does an incoming req see
system.mem_ctrls.wrQLenPdf::62                      0                       # What write queue length does an incoming req see
system.mem_ctrls.wrQLenPdf::63                      0                       # What write queue length does an incoming req see
system.mem_ctrls.bytesPerActivate::samples        12287                       # Bytes accessed per row activation
system.mem_ctrls.bytesPerActivate::mean    241.441524                       # Bytes accessed per row activation
system.mem_ctrls.bytesPerActivate::gmean   195.511782                       # Bytes accessed per row activation
system.mem_ctrls.bytesPerActivate::stdev   178.470125                       # Bytes accessed per row activation
system.mem_ctrls.bytesPerActivate::0-127         1894     15.41%     15.41% # Bytes accessed per row activation
system.mem_ctrls.bytesPerActivate::128-255         7078     57.61%     73.02% # Bytes accessed per row activation
system.mem_ctrls.bytesPerActivate::256-383         1367     11.13%     84.15% # Bytes accessed per row activation
system.mem_ctrls.bytesPerActivate::384-511          727      5.92%     90.06% # Bytes accessed per row activation
system.mem_ctrls.bytesPerActivate::512-639          715      5.82%     95.88% # Bytes accessed per row activation
system.mem_ctrls.bytesPerActivate::640-767          196      1.60%     97.48% # Bytes accessed per row activation
system.mem_ctrls.bytesPerActivate::768-895           43      0.35%     97.83% # Bytes accessed per row activation
system.mem_ctrls.bytesPerActivate::896-1023           54      0.44%     98.27% # Bytes accessed per row activation
system.mem_ctrls.bytesPerActivate::1024-1151          213      1.73%    100.00% # Bytes accessed per row activation
system.mem_ctrls.bytesPerActivate::total        12287                       # Bytes accessed per row activation
system.mem_ctrls.rdPerTurnAround::samples          360                       # Reads before turning the bus around for writes
system.mem_ctrls.rdPerTurnAround::mean     110.722222                       # Reads before turning the bus around for writes
system.mem_ctrls.rdPerTurnAround::gmean     19.536400                       # Reads before turning the bus around for writes
system.mem_ctrls.rdPerTurnAround::stdev   1534.830594                       # Reads before turning the bus around for writes
system.mem_ctrls.rdPerTurnAround::0-1023          357     99.17%     99.17% # Reads before turning the bus around for writes
system.mem_ctrls.rdPerTurnAround::1024-2047            2      0.56%     99.72% # Reads before turning the bus around for writes
[...]
system.cpu.icache.ReadReq_avg_miss_latency::total 76871.240602                       # average ReadReq miss latency
system.cpu.icache.ReadReq_mshr_misses::.cpu.inst          532                       # number of ReadReq MSHR misses
system.cpu.icache.ReadReq_mshr_misses::total          532                       # number of ReadReq MSHR misses
system.cpu.icache.ReadReq_mshr_miss_latency::.cpu.inst     40363500                       # number of ReadReq MSHR miss cycles
system.cpu.icache.ReadReq_mshr_miss_latency::total     40363500                       # number of ReadReq MSHR miss cycles
system.cpu.icache.ReadReq_mshr_miss_rate::.cpu.inst     0.000019                       # mshr miss rate for ReadReq accesses
system.cpu.icache.ReadReq_mshr_miss_rate::total     0.000019                       # mshr miss rate for ReadReq accesses
system.cpu.icache.ReadReq_avg_mshr_miss_latency::.cpu.inst 75871.240602                       # average ReadReq mshr miss latency
system.cpu.icache.ReadReq_avg_mshr_miss_latency::total 75871.240602                       # average ReadReq mshr miss latency
system.cpu.icache.tags.pwrStateResidencyTicks::UNDEFINED  57737698000                       # Cumulative time (in ticks) in various power states
system.cpu.icache.tags.tagsinuse           422.325141                       # Cycle average of tags in use
system.cpu.icache.tags.total_refs            28670562                       # Total number of references to valid blocks.
system.cpu.icache.tags.sampled_refs               532                       # Sample count of references to valid blocks.
system.cpu.icache.tags.avg_refs          53892.033835                       # Average number of references to valid blocks.
system.cpu.icache.tags.warmup_cycle             87500                       # Cycle when the warmup percentage was hit.
system.cpu.icache.tags.occ_blocks::.cpu.inst   422.325141                       # Average occupied blocks per requestor
system.cpu.icache.tags.occ_percent::.cpu.inst     0.824854                       # Average percentage of cache occupancy
system.cpu.icache.tags.occ_percent::total     0.824854                       # Average percentage of cache occupancy
system.cpu.icache.tags.occ_task_id_blocks::1024          423                       # Occupied blocks per task id
system.cpu.icache.tags.age_task_id_blocks_1024::4          423                       # Occupied blocks per task id
system.cpu.icache.tags.occ_task_id_percent::1024     0.826172                       # Percentage of cache occupancy per task id
system.cpu.icache.tags.tag_accesses         114682780                       # Number of tag accesses
system.cpu.icache.tags.data_accesses        114682780                       # Number of data accesses
system.cpu.dtb.walker.pwrStateResidencyTicks::UNDEFINED  57737698000                       # Cumulative time (in ticks) in various power states
system.cpu.dtb.stage2_mmu.stage2_tlb.walker.pwrStateResidencyTicks::UNDEFINED  57737698000                       # Cumulative time (in ticks) in various power states
system.cpu.dcache.pwrStateResidencyTicks::UNDEFINED  57737698000                       # Cumulative time (in ticks) in various power states
system.cpu.dcache.demand_hits::.cpu.data     34820902                       # number of demand (read+write) hits
system.cpu.dcache.demand_hits::total         34820902                       # number of demand (read+write) hits
system.cpu.dcache.overall_hits::.cpu.data     34824229                       # number of overall hits
system.cpu.dcache.overall_hits::total        34824229                       # number of overall hits
system.cpu.dcache.demand_misses::.cpu.data        75060                       # number of demand (read+write) misses
system.cpu.dcache.demand_misses::total          75060                       # number of demand (read+write) misses
system.cpu.dcache.overall_misses::.cpu.data        75098                       # number of overall misses
system.cpu.dcache.overall_misses::total         75098                       # number of overall misses
system.cpu.dcache.demand_miss_latency::.cpu.data   4594674000                       # number of demand (read+write) miss cycles
system.cpu.dcache.demand_miss_latency::total   4594674000                       # number of demand (read+write) miss cycles
system.cpu.dcache.overall_miss_latency::.cpu.data   4594674000                       # number of overall miss cycles
system.cpu.dcache.overall_miss_latency::total   4594674000                       # number of overall miss cycles
system.cpu.dcache.demand_accesses::.cpu.data     34895962                       # number of demand (read+write) accesses
system.cpu.dcache.demand_accesses::total     34895962                       # number of demand (read+write) accesses
system.cpu.dcache.overall_accesses::.cpu.data     34899327                       # number of overall (read+write) accesses
system.cpu.dcache.overall_accesses::total     34899327                       # number of overall (read+write) accesses
system.cpu.dcache.demand_miss_rate::.cpu.data     0.002151                       # miss rate for demand accesses
system.cpu.dcache.demand_miss_rate::total     0.002151                       # miss rate for demand accesses
system.cpu.dcache.overall_miss_rate::.cpu.data     0.002152                       # miss rate for overall accesses
system.cpu.dcache.overall_miss_rate::total     0.002152                       # miss rate for overall accesses
system.cpu.dcache.demand_avg_miss_latency::.cpu.data 61213.349321                       # average overall miss latency
system.cpu.dcache.demand_avg_miss_latency::total 61213.349321                       # average overall miss latency
system.cpu.dcache.overall_avg_miss_latency::.cpu.data 61182.375030                       # average overall miss latency
system.cpu.dcache.overall_avg_miss_latency::total 61182.375030                       # average overall miss latency
system.cpu.dcache.blocked_cycles::no_mshrs            0                       # number of cycles access was blocked
system.cpu.dcache.blocked_cycles::no_targets            0                       # number of cycles access was blocked
system.cpu.dcache.blocked::no_mshrs                 0                       # number of cycles access was blocked
system.cpu.dcache.blocked::no_targets               0                       # number of cycles access was blocked
system.cpu.dcache.avg_blocked_cycles::no_mshrs          nan                       # average number of cycles each access was blocked
system.cpu.dcache.avg_blocked_cycles::no_targets          nan                       # average number of cycles each access was blocked
system.cpu.dcache.writebacks::.writebacks        50416                       # number of writebacks
system.cpu.dcache.writebacks::total             50416                       # number of writebacks
system.cpu.dcache.demand_mshr_hits::.cpu.data        19861                       # number of demand (read+write) MSHR hits
system.cpu.dcache.demand_mshr_hits::total        19861                       # number of demand (read+write) MSHR hits
system.cpu.dcache.overall_mshr_hits::.cpu.data        19861                       # number of overall MSHR hits
system.cpu.dcache.overall_mshr_hits::total        19861                       # number of overall MSHR hits
system.cpu.dcache.demand_mshr_misses::.cpu.data        55199                       # number of demand (read+write) MSHR misses
system.cpu.dcache.demand_mshr_misses::total        55199                       # number of demand (read+write) MSHR misses
system.cpu.dcache.overall_mshr_misses::.cpu.data        55231                       # number of overall MSHR misses
system.cpu.dcache.overall_mshr_misses::total        55231                       # number of overall MSHR misses
system.cpu.dcache.demand_mshr_miss_latency::.cpu.data   3420538500                       # number of demand (read+write) MSHR miss cycles
system.cpu.dcache.demand_mshr_miss_latency::total   3420538500                       # number of demand (read+write) MSHR miss cycles
system.cpu.dcache.overall_mshr_miss_latency::.cpu.data   3421871000                       # number of overall MSHR miss cycles
system.cpu.dcache.overall_mshr_miss_latency::total   3421871000                       # number of overall MSHR miss cycles
system.cpu.dcache.demand_mshr_miss_rate::.cpu.data     0.001582                       # mshr miss rate for demand accesses
system.cpu.dcache.demand_mshr_miss_rate::total     0.001582                       # mshr miss rate for demand accesses
system.cpu.dcache.overall_mshr_miss_rate::.cpu.data     0.001583                       # mshr miss rate for overall accesses
system.cpu.dcache.overall_mshr_miss_rate::total     0.001583                       # mshr miss rate for overall accesses
system.cpu.dcache.demand_avg_mshr_miss_latency::.cpu.data 61967.399772                       # average overall mshr miss latency
system.cpu.dcache.demand_avg_mshr_miss_latency::total 61967.399772                       # average overall mshr miss latency
system.cpu.dcache.overall_avg_mshr_miss_latency::.cpu.data 61955.622748                       # average overall mshr miss latency
system.cpu.dcache.overall_avg_mshr_miss_latency::total 61955.622748                       # average overall mshr miss latency
system.cpu.dcache.replacements                  54207                       # number of replacements
system.cpu.dcache.ReadReq_hits::.cpu.data     20577256                       # number of ReadReq hits
system.cpu.dcache.ReadReq_hits::total        20577256                       # number of ReadReq hits
system.cpu.dcache.ReadReq_misses::.cpu.data        19488                       # number of ReadReq misses
system.cpu.dcache.ReadReq_misses::total         19488                       # number of ReadReq misses
system.cpu.dcache.ReadReq_miss_latency::.cpu.data    309965500                       # number of ReadReq miss cycles
system.cpu.dcache.ReadReq_miss_latency::total    309965500                       # number of ReadReq miss cycles
system.cpu.dcache.ReadReq_accesses::.cpu.data     20596744                       # number of ReadReq accesses(hits+misses)
system.cpu.dcache.ReadReq_accesses::total     20596744                       # number of ReadReq accesses(hits+misses)
system.cpu.dcache.ReadReq_miss_rate::.cpu.data     0.000946                       # miss rate for ReadReq accesses
system.cpu.dcache.ReadReq_miss_rate::total     0.000946                       # miss rate for ReadReq accesses
system.cpu.dcache.ReadReq_avg_miss_latency::.cpu.data 15905.454639                       # average ReadReq miss latency
system.cpu.dcache.ReadReq_avg_miss_latency::total 15905.454639                       # average ReadReq miss latency
system.cpu.dcache.ReadReq_mshr_hits::.cpu.data         3225                       # number of ReadReq MSHR hits
system.cpu.dcache.ReadReq_mshr_hits::total         3225                       # number of ReadReq MSHR hits
system.cpu.dcache.ReadReq_mshr_misses::.cpu.data        16263                       # number of ReadReq MSHR misses
system.cpu.dcache.ReadReq_mshr_misses::total        16263                       # number of ReadReq MSHR misses
system.cpu.dcache.ReadReq_mshr_miss_latency::.cpu.data    238670000                       # number of ReadReq MSHR miss cycles
system.cpu.dcache.ReadReq_mshr_miss_latency::total    238670000                       # number of ReadReq MSHR miss cycles
system.cpu.dcache.ReadReq_mshr_miss_rate::.cpu.data     0.000790                       # mshr miss rate for ReadReq accesses
system.cpu.dcache.ReadReq_mshr_miss_rate::total     0.000790                       # mshr miss rate for ReadReq accesses
system.cpu.dcache.ReadReq_avg_mshr_miss_latency::.cpu.data 14675.644100                       # average ReadReq mshr miss latency
system.cpu.dcache.ReadReq_avg_mshr_miss_latency::total 14675.644100                       # average ReadReq mshr miss latency
system.cpu.dcache.WriteReq_hits::.cpu.data     14243646                       # number of WriteReq hits
system.cpu.dcache.WriteReq_hits::total       14243646                       # number of WriteReq hits
system.cpu.dcache.WriteReq_misses::.cpu.data        55572                       # number of WriteReq misses
system.cpu.dcache.WriteReq_misses::total        55572                       # number of WriteReq misses
system.cpu.dcache.WriteReq_miss_latency::.cpu.data   4284708500                       # number of WriteReq miss cycles
system.cpu.dcache.WriteReq_miss_latency::total   4284708500                       # number of WriteReq miss cycles
system.cpu.dcache.WriteReq_accesses::.cpu.data     14299218                       # number of WriteReq accesses(hits+misses)
system.cpu.dcache.WriteReq_accesses::total     14299218                       # number of WriteReq accesses(hits+misses)
system.cpu.dcache.WriteReq_miss_rate::.cpu.data     0.003886                       # miss rate for WriteReq accesses
system.cpu.dcache.WriteReq_miss_rate::total     0.003886                       # miss rate for WriteReq accesses
system.cpu.dcache.WriteReq_avg_miss_latency::.cpu.data 77101.930828                       # average WriteReq miss latency
system.cpu.dcache.WriteReq_avg_miss_latency::total 77101.930828                       # average WriteReq miss latency
system.cpu.dcache.WriteReq_mshr_hits::.cpu.data        16636                       # number of WriteReq MSHR hits
system.cpu.dcache.WriteReq_mshr_hits::total        16636                       # number of WriteReq MSHR hits
system.cpu.dcache.WriteReq_mshr_misses::.cpu.data        38936                       # number of WriteReq MSHR misses
system.cpu.dcache.WriteReq_mshr_misses::total        38936                       # number of WriteReq MSHR misses
system.cpu.dcache.WriteReq_mshr_miss_latency::.cpu.data   3181868500                       # number of WriteReq MSHR miss cycles
system.cpu.dcache.WriteReq_mshr_miss_latency::total   3181868500                       # number of WriteReq MSHR miss cycles
system.cpu.dcache.WriteReq_mshr_miss_rate::.cpu.data     0.002723                       # mshr miss rate for WriteReq accesses
system.cpu.dcache.WriteReq_mshr_miss_rate::total     0.002723                       # mshr miss rate for WriteReq accesses
system.cpu.dcache.WriteReq_avg_mshr_miss_latency::.cpu.data 81720.477193                       # average WriteReq mshr miss latency
system.cpu.dcache.WriteReq_avg_mshr_miss_latency::total 81720.477193                       # average WriteReq mshr miss latency
system.cpu.dcache.SoftPFReq_hits::.cpu.data         3327                       # number of SoftPFReq hits
system.cpu.dcache.SoftPFReq_hits::total          3327                       # number of SoftPFReq hits
system.cpu.dcache.SoftPFReq_misses::.cpu.data           38                       # number of SoftPFReq misses
system.cpu.dcache.SoftPFReq_misses::total           38                       # number of SoftPFReq misses
system.cpu.dcache.SoftPFReq_accesses::.cpu.data         3365                       # number of SoftPFReq accesses(hits+misses)
system.cpu.dcache.SoftPFReq_accesses::total         3365                       # number of SoftPFReq accesses(hits+misses)
system.cpu.dcache.SoftPFReq_miss_rate::.cpu.data     0.011293                       # miss rate for SoftPFReq accesses
system.cpu.dcache.SoftPFReq_miss_rate::total     0.011293                       # miss rate for SoftPFReq accesses
system.cpu.dcache.SoftPFReq_mshr_misses::.cpu.data           32                       # number of SoftPFReq MSHR misses
system.cpu.dcache.SoftPFReq_mshr_misses::total           32                       # number of SoftPFReq MSHR misses
system.cpu.dcache.SoftPFReq_mshr_miss_latency::.cpu.data      1332500                       # number of SoftPFReq MSHR miss cycles
system.cpu.dcache.SoftPFReq_mshr_miss_latency::total      1332500                       # number of SoftPFReq MSHR miss cycles
system.cpu.dcache.SoftPFReq_mshr_miss_rate::.cpu.data     0.009510                       # mshr miss rate for SoftPFReq accesses
system.cpu.dcache.SoftPFReq_mshr_miss_rate::total     0.009510                       # mshr miss rate for SoftPFReq accesses
system.cpu.dcache.SoftPFReq_avg_mshr_miss_latency::.cpu.data 41640.625000                       # average SoftPFReq mshr miss latency
system.cpu.dcache.SoftPFReq_avg_mshr_miss_latency::total 41640.625000                       # average SoftPFReq mshr miss latency
system.cpu.dcache.LoadLockedReq_hits::.cpu.data        89082                       # number of LoadLockedReq hits
system.cpu.dcache.LoadLockedReq_hits::total        89082                       # number of LoadLockedReq hits
system.cpu.dcache.LoadLockedReq_accesses::.cpu.data        89082                       # number of LoadLockedReq accesses(hits+misses)
system.cpu.dcache.LoadLockedReq_accesses::total        89082                       # number of LoadLockedReq accesses(hits+misses)
system.cpu.dcache.StoreCondReq_hits::.cpu.data        89082                       # number of StoreCondReq hits
system.cpu.dcache.StoreCondReq_hits::total        89082                       # number of StoreCondReq hits
system.cpu.dcache.StoreCondReq_accesses::.cpu.data        89082                       # number of StoreCondReq accesses(hits+misses)
system.cpu.dcache.StoreCondReq_accesses::total        89082                       # number of StoreCondReq accesses(hits+misses)
system.cpu.dcache.tags.pwrStateResidencyTicks::UNDEFINED  57737698000                       # Cumulative time (in ticks) in various power states
system.cpu.dcache.tags.tagsinuse          1020.342767                       # Cycle average of tags in use
system.cpu.dcache.tags.total_refs            35057624                       # Total number of references to valid blocks.
system.cpu.dcache.tags.sampled_refs             55231                       # Sample count of references to valid blocks.
system.cpu.dcache.tags.avg_refs            634.745415                       # Average number of references to valid blocks.
system.cpu.dcache.tags.warmup_cycle            195500                       # Cycle when the warmup percentage was hit.
system.cpu.dcache.tags.occ_blocks::.cpu.data  1020.342767                       # Average occupied blocks per requestor
system.cpu.dcache.tags.occ_percent::.cpu.data     0.996428                       # Average percentage of cache occupancy
system.cpu.dcache.tags.occ_percent::total     0.996428                       # Average percentage of cache occupancy
system.cpu.dcache.tags.occ_task_id_blocks::1024         1024                       # Occupied blocks per task id
system.cpu.dcache.tags.age_task_id_blocks_1024::0            5                       # Occupied blocks per task id
system.cpu.dcache.tags.age_task_id_blocks_1024::1           54                       # Occupied blocks per task id
system.cpu.dcache.tags.age_task_id_blocks_1024::2          540                       # Occupied blocks per task id
system.cpu.dcache.tags.age_task_id_blocks_1024::3          390                       # Occupied blocks per task id
system.cpu.dcache.tags.age_task_id_blocks_1024::4           35                       # Occupied blocks per task id
system.cpu.dcache.tags.occ_task_id_percent::1024            1                       # Percentage of cache occupancy per task id
system.cpu.dcache.tags.tag_accesses          70210213                       # Number of tag accesses
system.cpu.dcache.tags.data_accesses         70210213                       # Number of data accesses
system.cpu.itb.walker.pwrStateResidencyTicks::UNDEFINED  57737698000                       # Cumulative time (in ticks) in various power states
system.cpu.itb.stage2_mmu.stage2_tlb.walker.pwrStateResidencyTicks::UNDEFINED  57737698000                       # Cumulative time (in ticks) in various power states

---------- End Simulation Statistics   ----------
