
---------- Begin Simulation Statistics ----------
final_tick                                59382627500                       # Number of ticks from beginning of simulation (restored from checkpoints and never reset)
host_inst_rate                                 274193                       # Simulator instruction rate (inst/s)
host_mem_usage                                 691952                       # Number of bytes of host memory used
host_op_rate                                   277217                       # Simulator op (including micro ops) rate (op/s)
host_seconds                                   364.71                       # Real time elapsed on the host
host_tick_rate                              162822875                       # Simulator tick rate (ticks/s)
sim_freq                                 1000000000000                       # Frequency of simulated ticks
sim_insts                                   100000000                       # Number of instructions simulated
sim_ops                                     101102770                       # Number of ops (including micro ops) simulated
sim_seconds                                  0.059383                       # Number of seconds simulated
sim_ticks                                 59382627500                       # Number of ticks simulated
system.cpu.branchPred.BTBCorrect                    0                       # Number of correct BTB predictions (this stat may not work properly.
system.cpu.branchPred.BTBHitPct             84.211754                       # BTB Hit Percentage
system.cpu.branchPred.BTBHits                 4083369                       # Number of BTB hits
system.cpu.branchPred.BTBLookups              4848930                       # Number of BTB lookups
system.cpu.branchPred.RASInCorrect                 19                       # Number of incorrect RAS predictions.
system.cpu.branchPred.condIncorrect            352101                       # Number of conditional branches incorrect
system.cpu.branchPred.condPredicted           5095105                       # Number of conditional branches predicted
system.cpu.branchPred.indirectHits             102874                       # Number of indirect target hits.
system.cpu.branchPred.indirectLookups          676240                       # Number of indirect predictor lookups.
system.cpu.branchPred.indirectMisses           573366                       # Number of indirect misses.
system.cpu.branchPred.lookups                 6501720                       # Number of BP lookups
system.cpu.branchPred.usedRAS                  311952                       # Number of times the RAS was used to get a target.
system.cpu.branchPredindirectMispredicted        37620                       # Number of mispredicted indirect branches.
system.cpu.committedInsts                   100000000                       # Number of instructions committed
system.cpu.committedOps                     101102770                       # Number of ops (including micro ops) committed
system.cpu.cpi                               1.187653                       # CPI: cycles per instruction
system.cpu.discardedOps                        974659                       # Number of ops (including micro ops) which were discarded before commit
system.cpu.dtb.accesses                             0                       # DTB accesses
system.cpu.dtb.align_faults                         0                       # Number of TLB faults due to alignment restrictions
system.cpu.dtb.domain_faults                        0                       # Number of TLB faults due to domain restrictions
system.cpu.dtb.flush_entries                        0                       # Number of entries that have been flushed from TLB
system.cpu.dtb.flush_tlb                            0                       # Number of times complete TLB was flushed
system.cpu.dtb.flush_tlb_asid                       0                       # Number of times TLB was flushed by ASID
system.cpu.dtb.flush_tlb_mva                        0                       # Number of times TLB was flushed by MVA
system.cpu.dtb.flush_tlb_mva_asid                   0                       # Number of times TLB was flushed by MVA & ASID
system.cpu.dtb.hits                                 0                       # DTB hits
system.cpu.dtb.inst_accesses                        0                       # ITB inst accesses
system.cpu.dtb.inst_hits                            0                       # ITB inst hits
system.cpu.dtb.inst_misses                          0                       # ITB inst misses
system.cpu.dtb.misses                               0                       # DTB misses
system.cpu.dtb.perms_faults                         0                       # Number of TLB faults due to permissions restrictions
system.cpu.dtb.prefetch_faults                      0                       # Number of TLB faults due to prefetch
system.cpu.dtb.read_accesses                        0                       # DTB read accesses
system.cpu.dtb.read_hits                            0                       # DTB read hits
system.cpu.dtb.read_misses                          0                       # DTB read misses
system.cpu.dtb.stage2_mmu.stage2_tlb.accesses            0                       # DTB accesses
system.cpu.dtb.stage2_mmu.stage2_tlb.align_faults            0                       # Number of TLB faults due to alignment restrictions
system.cpu.dtb.stage2_mmu.stage2_tlb.domain_faults            0                       # Number of TLB faults due to domain restrictions
system.cpu.dtb.stage2_mmu.stage2_tlb.flush_entries            0                       # Number of entries that have been flushed from TLB
system.cpu.dtb.stage2_mmu.stage2_tlb.flush_tlb            0                       # Number of times complete TLB was flushed
system.cpu.dtb.stage2_mmu.stage2_tlb.flush_tlb_asid            0                       # Number of times TLB was flushed by ASID
system.cpu.dtb.stage2_mmu.stage2_tlb.flush_tlb_mva            0                       # Number of times TLB was flushed by MVA
system.cpu.dtb.stage2_mmu.stage2_tlb.flush_tlb_mva_asid            0                       # Number of times TLB was flushed by MVA & ASID
system.cpu.dtb.stage2_mmu.stage2_tlb.hits            0                       # DTB hits
system.cpu.dtb.stage2_mmu.stage2_tlb.inst_accesses            0                       # ITB inst accesses
system.cpu.dtb.stage2_mmu.stage2_tlb.inst_hits            0                       # ITB inst hits
system.cpu.dtb.stage2_mmu.stage2_tlb.inst_misses            0                       # ITB inst misses
system.cpu.dtb.stage2_mmu.stage2_tlb.misses            0                       # DTB misses
system.cpu.dtb.stage2_mmu.stage2_tlb.perms_faults            0                       # Number of TLB faults due to permissions restrictions
system.cpu.dtb.stage2_mmu.stage2_tlb.prefetch_faults            0                       # Number of TLB faults due to prefetch
system.cpu.dtb.stage2_mmu.stage2_tlb.read_accesses            0                       # DTB read accesses
system.cpu.dtb.stage2_mmu.stage2_tlb.read_hits            0                       # DTB read hits
system.cpu.dtb.stage2_mmu.stage2_tlb.read_misses            0                       # DTB read misses
system.cpu.dtb.stage2_mmu.stage2_tlb.walker.walkRequestOrigin_Requested::Data            0                       # Table walker requests started/completed, data/inst
system.cpu.dtb.stage2_mmu.stage2_tlb.walker.walkRequestOrigin_Requested::Inst            0                       # Table walker requests started/completed, data/inst
system.cpu.dtb.stage2_mmu.stage2_tlb.walker.walkRequestOrigin_Requested::total            0                       # Table walker requests started/completed, data/inst
system.cpu.dtb.stage2_mmu.stage2_tlb.walker.walkRequestOrigin_Completed::Data            0                       # Table walker requests started/completed, data/inst
system.cpu.dtb.stage2_mmu.stage2_tlb.walker.walkRequestOrigin_Completed::Inst            0                       # Table walker requests started/completed, data/inst
system.cpu.dtb.stage2_mmu.stage2_tlb.walker.walkRequestOrigin_Completed::total            0                       # Table walker requests started/completed, data/inst
system.cpu.dtb.stage2_mmu.stage2_tlb.walker.walkRequestOrigin::total            0                       # Table walker requests started/completed, data/inst
system.cpu.dtb.stage2_mmu.stage2_tlb.walker.walks            0                       # Table walker walks requested
system.cpu.dtb.stage2_mmu.stage2_tlb.write_accesses            0                       # DTB write accesses
system.cpu.dtb.stage2_mmu.stage2_tlb.write_hits            0                       # DTB write hits
system.cpu.dtb.stage2_mmu.stage2_tlb.write_misses            0                       # DTB write misses
system.cpu.dtb.walker.walkRequestOrigin_Requested::Data            0                       # Table walker requests started/completed, data/inst
system.cpu.dtb.walker.walkRequestOrigin_Requested::Inst            0                       # Table walker requests started/completed, data/inst
system.cpu.dtb.walker.walkRequestOrigin_Requested::total            0                       # Table walker requests started/completed, data/inst
system.cpu.dtb.walker.walkRequestOrigin_Completed::Data            0                       # Table walker requests started/completed, data/inst
system.cpu.dtb.walker.walkRequestOrigin_Completed::Inst            0                       # Table walker requests started/completed, data/inst
system.cpu.dtb.walker.walkRequestOrigin_Completed::total            0                       # Table walker requests started/completed, data/inst
system.cpu.dtb.walker.walkRequestOrigin::total            0                       # Table walker requests started/completed, data/inst
system.cpu.dtb.walker.walks                         0                       # Table walker walks requested
system.cpu.dtb.write_accesses                       0                       # DTB write accesses
system.cpu.dtb.write_hits                           0                       # DTB write hits
system.cpu.dtb.write_misses                         0                       # DTB write misses
system.cpu.fetch2.amo_instructions                  0                       # Number of memory atomic instructions successfully decoded
system.cpu.fetch2.fp_instructions                   0                       # Number of floating point instructions successfully decoded
system.cpu.fetch2.int_instructions           48883743                       # Number of integer instructions successfully decoded
system.cpu.fetch2.load_instructions          40578711                       # Number of memory load instructions successfully decoded
system.cpu.fetch2.store_instructions          6265607                       # Number of memory store instructions successfully decoded
system.cpu.fetch2.vec_instructions                  0                       # Number of SIMD instructions successfully decoded
system.cpu.idleCycles                         2830452                       # Total number of cycles that the object has spent stopped
system.cpu.ipc                               0.841997                       # IPC: instructions per cycle
system.cpu.itb.accesses                             0                       # DTB accesses
system.cpu.itb.align_faults                         0                       # Number of TLB faults due to alignment restrictions
system.cpu.itb.domain_faults                        0                       # Number of TLB faults due to domain restrictions
system.cpu.itb.flush_entries                        0                       # Number of entries that have been flushed from TLB
system.cpu.itb.flush_tlb                            0                       # Number of times complete TLB was flushed
system.cpu.itb.flush_tlb_asid                       0                       # Number of times TLB was flushed by ASID
system.cpu.itb.flush_tlb_mva                        0                       # Number of times TLB was flushed by MVA
system.cpu.itb.flush_tlb_mva_asid                   0                       # Number of times TLB was flushed by MVA & ASID
system.cpu.itb.hits                                 0                       # DTB hits
system.cpu.itb.inst_accesses                        0                       # ITB inst accesses
system.cpu.itb.inst_hits                            0                       # ITB inst hits
system.cpu.itb.inst_misses                          0                       # ITB inst misses
system.cpu.itb.misses                               0                       # DTB misses
system.cpu.itb.perms_faults                         0                       # Number of TLB faults due to permissions restrictions
system.cpu.itb.prefetch_faults                      0                       # Number of TLB faults due to prefetch
system.cpu.itb.read_accesses                        0                       # DTB read accesses
system.cpu.itb.read_hits                            0                       # DTB read hits
system.cpu.itb.read_misses                          0                       # DTB read misses
system.cpu.itb.stage2_mmu.stage2_tlb.accesses            0                       # DTB accesses
system.cpu.itb.stage2_mmu.stage2_tlb.align_faults            0                       # Number of TLB faults due to alignment restrictions
system.cpu.itb.stage2_mmu.stage2_tlb.domain_faults            0                       # Number of TLB faults due to domain restrictions
system.cpu.itb.stage2_mmu.stage2_tlb.flush_entries            0                       # Number of entries that have been flushed from TLB
system.cpu.itb.stage2_mmu.stage2_tlb.flush_tlb            0                       # Number of times complete TLB was flushed
system.cpu.itb.stage2_mmu.stage2_tlb.flush_tlb_asid            0                       # Number of times TLB was flushed by ASID
system.cpu.itb.stage2_mmu.stage2_tlb.flush_tlb_mva            0                       # Number of times TLB was flushed by MVA
system.cpu.itb.stage2_mmu.stage2_tlb.flush_tlb_mva_asid            0                       # Number of times TLB was flushed by MVA & ASID
system.cpu.itb.stage2_mmu.stage2_tlb.hits            0                       # DTB hits
system.cpu.itb.stage2_mmu.stage2_tlb.inst_accesses            0                       # ITB inst accesses
system.cpu.itb.stage2_mmu.stage2_tlb.inst_hits            0                       # ITB inst hits
system.cpu.itb.stage2_mmu.stage2_tlb.inst_misses            0                       # ITB inst misses
system.cpu.itb.stage2_mmu.stage2_tlb.misses            0                       # DTB misses
system.cpu.itb.stage2_mmu.stage2_tlb.perms_faults            0                       # Number of TLB faults due to permissions restrictions
system.cpu.itb.stage2_mmu.stage2_tlb.prefetch_faults            0                       # Number of TLB faults due to prefetch
system.cpu.itb.stage2_mmu.stage2_tlb.read_accesses            0                       # DTB read accesses
system.cpu.itb.stage2_mmu.stage2_tlb.read_hits            0                       # DTB read hits
system.cpu.itb.stage2_mmu.stage2_tlb.read_misses            0                       # DTB read misses
system.cpu.itb.stage2_mmu.stage2_tlb.walker.walkRequestOrigin_Requested::Data            0                       # Table walker requests started/completed, data/inst
system.cpu.itb.stage2_mmu.stage2_tlb.walker.walkRequestOrigin_Requested::Inst            0                       # Table walker requests started/completed, data/inst
system.cpu.itb.stage2_mmu.stage2_tlb.walker.walkRequestOrigin_Requested::total            0                       # Table walker requests started/completed, data/inst
system.cpu.itb.stage2_mmu.stage2_tlb.walker.walkRequestOrigin_Completed::Data            0                       # Table walker requests started/completed, data/inst
system.cpu.itb.stage2_mmu.stage2_tlb.walker.walkRequestOrigin_Completed::Inst            0                       # Table walker requests started/completed, data/inst
system.cpu.itb.stage2_mmu.stage2_tlb.walker.walkRequestOrigin_Completed::total            0                       # Table walker requests started/completed, data/inst
system.cpu.itb.stage2_mmu.stage2_tlb.walker.walkRequestOrigin::total            0                       # Table walker requests started/completed, data/inst
system.cpu.itb.stage2_mmu.stage2_tlb.walker.walks            0                       # Table walker walks requested
system.cpu.itb.stage2_mmu.stage2_tlb.write_accesses            0                       # DTB write accesses
system.cpu.itb.stage2_mmu.stage2_tlb.write_hits            0                       # DTB write hits
system.cpu.itb.stage2_mmu.stage2_tlb.write_misses            0                       # DTB write misses
system.cpu.itb.walker.walkRequestOrigin_Requested::Data            0                       # Table walker requests started/completed, data/inst
system.cpu.itb.walker.walkRequestOrigin_Requested::Inst            0                       # Table walker requests started/completed, data/inst
system.cpu.itb.walker.walkRequestOrigin_Requested::total            0                       # Table walker requests started/completed, data/inst
system.cpu.itb.walker.walkRequestOrigin_Completed::Data            0                       # Table walker requests started/completed, data/inst
system.cpu.itb.walker.walkRequestOrigin_Completed::Inst            0                       # Table walker requests started/completed, data/inst
system.cpu.itb.walker.walkRequestOrigin_Completed::total            0                       # Table walker requests started/completed, data/inst
system.cpu.itb.walker.walkRequestOrigin::total            0                       # Table walker requests started/completed, data/inst
system.cpu.itb.walker.walks                         0                       # Table walker walks requested
system.cpu.itb.write_accesses                       0                       # DTB write accesses
system.cpu.itb.write_hits                           0                       # DTB write hits
system.cpu.itb.write_misses                         0                       # DTB write misses
system.cpu.numCycles                        118765255                       # number of cpu cycles simulated
system.cpu.numFetchSuspends                         0                       # Number of times Execute suspended instruction fetching
system.cpu.numWorkItemsCompleted                    0                       # number of work items this cpu completed
system.cpu.numWorkItemsStarted                      0                       # number of work items this cpu started
system.cpu.op_class_0::No_OpClass                   0      0.00%      0.00% # Class of committed instruction
system.cpu.op_class_0::IntAlu                55115805     54.51%     54.51% # Class of committed instruction
system.cpu.op_class_0::IntMult                 167845      0.17%     54.68% # Class of committed instruction
system.cpu.op_class_0::IntDiv                       0      0.00%     54.68% # Class of committed instruction
system.cpu.op_class_0::FloatAdd                     0      0.00%     54.68% # Class of committed instruction
system.cpu.op_class_0::FloatCmp                     0      0.00%     54.68% # Class of committed instruction
system.cpu.op_class_0::FloatCvt                     0      0.00%     54.68% # Class of committed instruction
system.cpu.op_class_0::FloatMult                    0      0.00%     54.68% # Class of committed instruction
system.cpu.op_class_0::FloatMultAcc                 0      0.00%     54.68% # Class of committed instruction
system.cpu.op_class_0::FloatDiv                     0      0.00%     54.68% # Class of committed instruction
system.cpu.op_class_0::FloatMisc                    0      0.00%     54.68% # Class of committed instruction
system.cpu.op_class_0::FloatSqrt                    0      0.00%     54.68% # Class of committed instruction
system.cpu.op_class_0::SimdAdd                    376      0.00%     54.68% # Class of committed instruction
system.cpu.op_class_0::SimdAddAcc                   0      0.00%     54.68% # Class of committed instruction
system.cpu.op_class_0::SimdAlu                    466      0.00%     54.68% # Class of committed instruction
system.cpu.op_class_0::SimdCmp                    378      0.00%     54.68% # Class of committed instruction
system.cpu.op_class_0::SimdCvt                      0      0.00%     54.68% # Class of committed instruction
system.cpu.op_class_0::SimdMisc                    53      0.00%     54.68% # Class of committed instruction
system.cpu.op_class_0::SimdMult                     0      0.00%     54.68% # Class of committed instruction
system.cpu.op_class_0::SimdMultAcc                  0      0.00%     54.68% # Class of committed instruction
system.cpu.op_class_0::SimdShift                    0      0.00%     54.68% # Class of committed instruction
system.cpu.op_class_0::SimdShiftAcc                 0      0.00%     54.68% # Class of committed instruction
system.cpu.op_class_0::SimdDiv                      0      0.00%     54.68% # Class of committed instruction
system.cpu.op_class_0::SimdSqrt                     0      0.00%     54.68% # Class of committed instruction
system.cpu.op_class_0::SimdFloatAdd            267609      0.26%     54.95% # Class of committed instruction
system.cpu.op_class_0::SimdFloatAlu                 0      0.00%     54.95% # Class of committed instruction
system.cpu.op_class_0::SimdFloatCmp            259630      0.26%     55.20% # Class of committed instruction
system.cpu.op_class_0::SimdFloatCvt            161456      0.16%     55.36% # Class of committed instruction
system.cpu.op_class_0::SimdFloatDiv             54308      0.05%     55.42% # Class of committed instruction
system.cpu.op_class_0::SimdFloatMisc           483616      0.48%     55.90% # Class of committed instruction
system.cpu.op_class_0::SimdFloatMult            33524      0.03%     55.93% # Class of committed instruction
system.cpu.op_class_0::SimdFloatMultAcc         11115      0.01%     55.94% # Class of committed instruction
system.cpu.op_class_0::SimdFloatSqrt                0      0.00%     55.94% # Class of committed instruction
system.cpu.op_class_0::SimdReduceAdd                0      0.00%     55.94% # Class of committed instruction
system.cpu.op_class_0::SimdReduceAlu                0      0.00%     55.94% # Class of committed instruction
system.cpu.op_class_0::SimdReduceCmp                0      0.00%     55.94% # Class of committed instruction
system.cpu.op_class_0::SimdFloatReduceAdd            0      0.00%     55.94% # Class of committed instruction
system.cpu.op_class_0::SimdFloatReduceCmp            0      0.00%     55.94% # Class of committed instruction
system.cpu.op_class_0::SimdAes                      0      0.00%     55.94% # Class of committed instruction
system.cpu.op_class_0::SimdAesMix                   0      0.00%     55.94% # Class of committed instruction
system.cpu.op_class_0::SimdSha1Hash                 0      0.00%     55.94% # Class of committed instruction
system.cpu.op_class_0::SimdSha1Hash2                0      0.00%     55.94% # Class of committed instruction
system.cpu.op_class_0::SimdSha256Hash               0      0.00%     55.94% # Class of committed instruction
system.cpu.op_class_0::SimdSha256Hash2              0      0.00%     55.94% # Class of committed instruction
system.cpu.op_class_0::SimdShaSigma2                0      0.00%     55.94% # Class of committed instruction
system.cpu.op_class_0::SimdShaSigma3                0      0.00%     55.94% # Class of committed instruction
system.cpu.op_class_0::SimdPredAlu                  0      0.00%     55.94% # Class of committed instruction
system.cpu.op_class_0::MemRead               38167552     37.75%     93.69% # Class of committed instruction
system.cpu.op_class_0::MemWrite               6379037      6.31%    100.00% # Class of committed instruction
system.cpu.op_class_0::FloatMemRead                 0      0.00%    100.00% # Class of committed instruction
system.cpu.op_class_0::FloatMemWrite                0      0.00%    100.00% # Class of committed instruction
system.cpu.op_class_0::IprAccess                    0      0.00%    100.00% # Class of committed instruction
system.cpu.op_class_0::InstPrefetch                 0      0.00%    100.00% # Class of committed instruction
system.cpu.op_class_0::total                101102770                       # Class of committed instruction
system.cpu.tickCycles                       115934803                       # Number of cycles that the object actually ticked
system.cpu.workload.numSyscalls                    32                       # Number of system calls
system.membus.snoop_filter.hit_multi_requests            0                       # Number of requests hitting in the snoop filter with multiple (>1) holders of the requested data.
system.membus.snoop_filter.hit_multi_snoops            0                       # Number of snoops hitting in the snoop filter with multiple (>1) holders of the requested data.
system.membus.snoop_filter.hit_single_requests            0                       # Number of requests hitting in the snoop filter with a single holder of the requested data.
system.membus.snoop_filter.hit_single_snoops            0                       # Number of snoops hitting in the snoop filter with a single holder of the requested data.
system.membus.snoop_filter.tot_requests          5479                       # Total number of requests made to the snoop filter.
system.membus.snoop_filter.tot_snoops               0                       # Total number of snoops made to the snoop filter.
system.tol2bus.snoop_filter.hit_multi_requests          866                       # Number of requests hitting in the snoop filter with multiple (>1) holders of the requested data.
system.tol2bus.snoop_filter.hit_multi_snoops            0                       # Number of snoops hitting in the snoop filter with multiple (>1) holders of the requested data.
system.tol2bus.snoop_filter.hit_single_requests        69968                       # Number of requests hitting in the snoop filter with a single holder of the requested data.
system.tol2bus.snoop_filter.hit_single_snoops            0                       # Number of snoops hitting in the snoop filter with a single holder of the requested data.
system.tol2bus.snoop_filter.tot_requests       141436                       # Total number of requests made to the snoop filter.
system.tol2bus.snoop_filter.tot_snoops              0                       # Total number of snoops made to the snoop filter.
system.membus.pwrStateResidencyTicks::UNDEFINED  59382627500                       # Cumulative time (in ticks) in various power states
system.membus.trans_dist::ReadResp               1812                       # Transaction distribution
system.membus.trans_dist::ReadExReq              3667                       # Transaction distribution
system.membus.trans_dist::ReadExResp             3667                       # Transaction distribution
system.membus.trans_dist::ReadSharedReq          1812                       # Transaction distribution
system.membus.pkt_count_system.l2.mem_side::system.mem_ctrls.port        10958                       # Packet count per connected master and slave (bytes)
system.membus.pkt_count::total                  10958                       # Packet count per connected master and slave (bytes)
system.membus.pkt_size_system.l2.mem_side::system.mem_ctrls.port       350656                       # Cumulative packet size per connected master and slave (bytes)
system.membus.pkt_size::total                  350656                       # Cumulative packet size per connected master and slave (bytes)
system.membus.snoops                                0                       # Total snoops (count)
system.membus.snoopTraffic                          0                       # Total snoop traffic (bytes)
system.membus.snoop_fanout::samples              5479                       # Request fanout histogram
system.membus.snoop_fanout::mean                    0                       # Request fanout histogram
system.membus.snoop_fanout::stdev                   0                       # Request fanout histogram
system.membus.snoop_fanout::underflows              0      0.00%      0.00% # Request fanout histogram
system.membus.snoop_fanout::0                    5479    100.00%    100.00% # Request fanout histogram
system.membus.snoop_fanout::1                       0      0.00%    100.00% # Request fanout histogram
system.membus.snoop_fanout::overflows               0      0.00%    100.00% # Request fanout histogram
system.membus.snoop_fanout::min_value               0                       # Request fanout histogram
system.membus.snoop_fanout::max_value               0                       # Request fanout histogram
system.membus.snoop_fanout::total                5479                       # Request fanout histogram
system.membus.respLayer1.occupancy           29088750                       # Layer occupancy (ticks)
system.membus.respLayer1.utilization              0.0                       # Layer utilization (%)
system.membus.reqLayer0.occupancy             6826500                       # Layer occupancy (ticks)
system.membus.reqLayer0.utilization               0.0                       # Layer utilization (%)
system.tol2bus.pwrStateResidencyTicks::UNDEFINED  59382627500                       # Cumulative time (in ticks) in various power states
system.tol2bus.trans_dist::ReadResp             15527                       # Transaction distribution
system.tol2bus.trans_dist::WritebackDirty        64795                       # Transaction distribution
system.tol2bus.trans_dist::WritebackClean         3250                       # Transaction distribution
system.tol2bus.trans_dist::CleanEvict            1907                       # Transaction distribution
system.tol2bus.trans_dist::ReadExReq            55957                       # Transaction distribution
system.tol2bus.trans_dist::ReadExResp           55957                       # Transaction distribution
system.tol2bus.trans_dist::ReadCleanReq          3758                       # Transaction distribution
system.tol2bus.trans_dist::ReadSharedReq        11769                       # Transaction distribution
system.tol2bus.pkt_count_system.cpu.icache.mem_side::system.l2.cpu_side        10766                       # Packet count per connected master and slave (bytes)
system.tol2bus.pkt_count_system.cpu.dcache.mem_side::system.l2.cpu_side       202154                       # Packet count per connected master and slave (bytes)
system.tol2bus.pkt_count::total                212920                       # Packet count per connected master and slave (bytes)
system.tol2bus.pkt_size_system.cpu.icache.mem_side::system.l2.cpu_side       448512                       # Cumulative packet size per connected master and slave (bytes)
system.tol2bus.pkt_size_system.cpu.dcache.mem_side::system.l2.cpu_side      8481344                       # Cumulative packet size per connected master and slave (bytes)
system.tol2bus.pkt_size::total                8929856                       # Cumulative packet size per connected master and slave (bytes)
system.tol2bus.snoops                               0                       # Total snoops (count)
system.tol2bus.snoopTraffic                         0                       # Total snoop traffic (bytes)
system.tol2bus.snoop_fanout::samples            71484                       # Request fanout histogram
system.tol2bus.snoop_fanout::mean            0.012338                       # Request fanout histogram
system.tol2bus.snoop_fanout::stdev           0.110392                       # Request fanout histogram
system.tol2bus.snoop_fanout::underflows             0      0.00%      0.00% # Request fanout histogram
system.tol2bus.snoop_fanout::0                  70602     98.77%     98.77% # Request fanout histogram
system.tol2bus.snoop_fanout::1                    882      1.23%    100.00% # Request fanout histogram
system.tol2bus.snoop_fanout::2                      0      0.00%    100.00% # Request fanout histogram
system.tol2bus.snoop_fanout::overflows              0      0.00%    100.00% # Request fanout histogram
system.tol2bus.snoop_fanout::min_value              0                       # Request fanout histogram
system.tol2bus.snoop_fanout::max_value              1                       # Request fanout histogram
system.tol2bus.snoop_fanout::total              71484                       # Request fanout histogram
system.tol2bus.reqLayer0.occupancy          138763000                       # Layer occupancy (ticks)
system.tol2bus.reqLayer0.utilization              0.2                       # Layer utilization (%)
system.tol2bus.respLayer1.occupancy         101592493                       # Layer occupancy (ticks)
system.tol2bus.respLayer1.utilization             0.2                       # Layer utilization (%)
system.tol2bus.respLayer0.occupancy           5637499                       # Layer occupancy (ticks)
system.tol2bus.respLayer0.utilization             0.0                       # Layer utilization (%)
system.voltage_domain.voltage                       1                       # Voltage in Volts
system.clk_domain.clock                          1000                       # Clock period in ticks
system.l2.pwrStateResidencyTicks::UNDEFINED  59382627500                       # Cumulative time (in ticks) in various power states
system.l2.demand_hits::.cpu.inst                 2462                       # number of demand (read+write) hits
system.l2.demand_hits::.cpu.data                63536                       # number of demand (read+write) hits
system.l2.demand_hits::total                    65998                       # number of demand (read+write) hits
system.l2.overall_hits::.cpu.inst                2462                       # number of overall hits
system.l2.overall_hits::.cpu.data               63536                       # number of overall hits
system.l2.overall_hits::total                   65998                       # number of overall hits
system.l2.demand_misses::.cpu.inst               1296                       # number of demand (read+write) misses
system.l2.demand_misses::.cpu.data               4190                       # number of demand (read+write) misses
system.l2.demand_misses::total                   5486                       # number of demand (read+write) misses
system.l2.overall_misses::.cpu.inst              1296                       # number of overall misses
system.l2.overall_misses::.cpu.data              4190                       # number of overall misses
system.l2.overall_misses::total                  5486                       # number of overall misses
system.l2.demand_miss_latency::.cpu.inst     99519000                       # number of demand (read+write) miss cycles
system.l2.demand_miss_latency::.cpu.data    323027000                       # number of demand (read+write) miss cycles
system.l2.demand_miss_latency::total        422546000                       # number of demand (read+write) miss cycles
system.l2.overall_miss_latency::.cpu.inst     99519000                       # number of overall miss cycles
system.l2.overall_miss_latency::.cpu.data    323027000                       # number of overall miss cycles
system.l2.overall_miss_latency::total       422546000                       # number of overall miss cycles
system.l2.demand_accesses::.cpu.inst             3758                       # number of demand (read+write) accesses
system.l2.demand_accesses::.cpu.data            67726                       # number of demand (read+write) accesses
system.l2.demand_accesses::total                71484                       # number of demand (read+write) accesses
system.l2.overall_accesses::.cpu.inst            3758                       # number of overall (read+write) accesses
system.l2.overall_accesses::.cpu.data           67726                       # number of overall (read+write) accesses
system.l2.overall_accesses::total               71484                       # number of overall (read+write) accesses
system.l2.demand_miss_rate::.cpu.inst        0.344864                       # miss rate for demand accesses
system.l2.demand_miss_rate::.cpu.data        0.061867                       # miss rate for demand accesses
system.l2.demand_miss_rate::total            0.076744                       # miss rate for demand accesses
system.l2.overall_miss_rate::.cpu.inst       0.344864                       # miss rate for overall accesses
system.l2.overall_miss_rate::.cpu.data       0.061867                       # miss rate for overall accesses
system.l2.overall_miss_rate::total           0.076744                       # miss rate for overall accesses
system.l2.demand_avg_miss_latency::.cpu.inst 76789.351852                       # average overall miss latency
system.l2.demand_avg_miss_latency::.cpu.data 77094.749403                       # average overall miss latency
system.l2.demand_avg_miss_latency::total 77022.602989                       # average overall miss latency
system.l2.overall_avg_miss_latency::.cpu.inst 76789.351852                       # average overall miss latency
system.l2.overall_avg_miss_latency::.cpu.data 77094.749403                       # average overall miss latency
system.l2.overall_avg_miss_latency::total 77022.602989                       # average overall miss latency
system.l2.blocked_cycles::no_mshrs                  0                       # number of cycles access was blocked
system.l2.blocked_cycles::no_targets                0                       # number of cycles access was blocked
system.l2.blocked::no_mshrs                         0                       # number of cycles access was blocked
system.l2.blocked::no_targets                       0                       # number of cycles access was blocked
system.l2.avg_blocked_cycles::no_mshrs            nan                       # average number of cycles each access was blocked
system.l2.avg_blocked_cycles::no_targets          nan                       # average number of cycles each access was blocked
system.l2.demand_mshr_hits::.cpu.inst               1                       # number of demand (read+write) MSHR hits
system.l2.demand_mshr_hits::.cpu.data               6                       # number of demand (read+write) MSHR hits
system.l2.demand_mshr_hits::total                   7                       # number of demand (read+write) MSHR hits
system.l2.overall_mshr_hits::.cpu.inst              1                       # number of overall MSHR hits
system.l2.overall_mshr_hits::.cpu.data              6                       # number of overall MSHR hits
system.l2.overall_mshr_hits::total                  7                       # number of overall MSHR hits
system.l2.demand_mshr_misses::.cpu.inst          1295                       # number of demand (read+write) MSHR misses
system.l2.demand_mshr_misses::.cpu.data          4184                       # number of demand (read+write) MSHR misses
system.l2.demand_mshr_misses::total              5479                       # number of demand (read+write) MSHR misses
system.l2.overall_mshr_misses::.cpu.inst         1295                       # number of overall MSHR misses
system.l2.overall_mshr_misses::.cpu.data         4184                       # number of overall MSHR misses
system.l2.overall_mshr_misses::total             5479                       # number of overall MSHR misses
system.l2.demand_mshr_miss_latency::.cpu.inst     86505000                       # number of demand (read+write) MSHR miss cycles
system.l2.demand_mshr_miss_latency::.cpu.data    280814000                       # number of demand (read+write) MSHR miss cycles
system.l2.demand_mshr_miss_latency::total    367319000                       # number of demand (read+write) MSHR miss cycles
system.l2.overall_mshr_miss_latency::.cpu.inst     86505000                       # number of overall MSHR miss cycles
system.l2.overall_mshr_miss_latency::.cpu.data    280814000                       # number of overall MSHR miss cycles
system.l2.overall_mshr_miss_latency::total    367319000                       # number of overall MSHR miss cycles
system.l2.demand_mshr_miss_rate::.cpu.inst     0.344598                       # mshr miss rate for demand accesses
system.l2.demand_mshr_miss_rate::.cpu.data     0.061778                       # mshr miss rate for demand accesses
system.l2.demand_mshr_miss_rate::total       0.076647                       # mshr miss rate for demand accesses
system.l2.overall_mshr_miss_rate::.cpu.inst     0.344598                       # mshr miss rate for overall accesses
system.l2.overall_mshr_miss_rate::.cpu.data     0.061778                       # mshr miss rate for overall accesses
system.l2.overall_mshr_miss_rate::total      0.076647                       # mshr miss rate for overall accesses
system.l2.demand_avg_mshr_miss_latency::.cpu.inst 66799.227799                       # average overall mshr miss latency
system.l2.demand_avg_mshr_miss_latency::.cpu.data 67116.156788                       # average overall mshr miss latency
system.l2.demand_avg_mshr_miss_latency::total 67041.248403                       # average overall mshr miss latency
system.l2.overall_avg_mshr_miss_latency::.cpu.inst 66799.227799                       # average overall mshr miss latency
system.l2.overall_avg_mshr_miss_latency::.cpu.data 67116.156788                       # average overall mshr miss latency
system.l2.overall_avg_mshr_miss_latency::total 67041.248403                       # average overall mshr miss latency
system.l2.replacements                              0                       # number of replacements
system.l2.WritebackDirty_hits::.writebacks        64795                       # number of WritebackDirty hits
system.l2.WritebackDirty_hits::total            64795                       # number of WritebackDirty hits
system.l2.WritebackDirty_accesses::.writebacks        64795                       # number of WritebackDirty accesses(hits+misses)
system.l2.WritebackDirty_accesses::total        64795                       # number of WritebackDirty accesses(hits+misses)
system.l2.WritebackClean_hits::.writebacks         3128                       # number of WritebackClean hits
system.l2.WritebackClean_hits::total             3128                       # number of WritebackClean hits
system.l2.WritebackClean_accesses::.writebacks         3128                       # number of WritebackClean accesses(hits+misses)
system.l2.WritebackClean_accesses::total         3128                       # number of WritebackClean accesses(hits+misses)
system.l2.ReadExReq_hits::.cpu.data             52290                       # number of ReadExReq hits
system.l2.ReadExReq_hits::total                 52290                       # number of ReadExReq hits
system.l2.ReadExReq_misses::.cpu.data            3667                       # number of ReadExReq misses
system.l2.ReadExReq_misses::total                3667                       # number of ReadExReq misses
system.l2.ReadExReq_miss_latency::.cpu.data    281564500                       # number of ReadExReq miss cycles
system.l2.ReadExReq_miss_latency::total     281564500                       # number of ReadExReq miss cycles
system.l2.ReadExReq_accesses::.cpu.data         55957                       # number of ReadExReq accesses(hits+misses)
system.l2.ReadExReq_accesses::total             55957                       # number of ReadExReq accesses(hits+misses)
system.l2.ReadExReq_miss_rate::.cpu.data     0.065532                       # miss rate for ReadExReq accesses
system.l2.ReadExReq_miss_rate::total         0.065532                       # miss rate for ReadExReq accesses
system.l2.ReadExReq_avg_miss_latency::.cpu.data 76783.337878                       # average ReadExReq miss latency
system.l2.ReadExReq_avg_miss_latency::total 76783.337878                       # average ReadExReq miss latency
system.l2.ReadExReq_mshr_misses::.cpu.data         3667                       # number of ReadExReq MSHR misses
system.l2.ReadExReq_mshr_misses::total           3667                       # number of ReadExReq MSHR misses
system.l2.ReadExReq_mshr_miss_latency::.cpu.data    244894500                       # number of ReadExReq MSHR miss cycles
system.l2.ReadExReq_mshr_miss_latency::total    244894500                       # number of ReadExReq MSHR miss cycles
system.l2.ReadExReq_mshr_miss_rate::.cpu.data     0.065532                       # mshr miss rate for ReadExReq accesses
system.l2.ReadExReq_mshr_miss_rate::total     0.065532                       # mshr miss rate for ReadExReq accesses
system.l2.ReadExReq_avg_mshr_miss_latency::.cpu.data 66783.337878                       # average ReadExReq mshr miss latency
system.l2.ReadExReq_avg_mshr_miss_latency::total 66783.337878                       # average ReadExReq mshr miss latency
system.l2.ReadCleanReq_hits::.cpu.inst           2462                       # number of ReadCleanReq hits
system.l2.ReadCleanReq_hits::total               2462                       # number of ReadCleanReq hits
system.l2.ReadCleanReq_misses::.cpu.inst         1296                       # number of ReadCleanReq misses
system.l2.ReadCleanReq_misses::total             1296                       # number of ReadCleanReq misses
system.l2.ReadCleanReq_miss_latency::.cpu.inst     99519000                       # number of ReadCleanReq miss cycles
system.l2.ReadCleanReq_miss_latency::total     99519000                       # number of ReadCleanReq miss cycles
system.l2.ReadCleanReq_accesses::.cpu.inst         3758                       # number of ReadCleanReq accesses(hits+misses)
system.l2.ReadCleanReq_accesses::total           3758                       # number of ReadCleanReq accesses(hits+misses)
system.l2.ReadCleanReq_miss_rate::.cpu.inst     0.344864                       # miss rate for ReadCleanReq accesses
system.l2.ReadCleanReq_miss_rate::total      0.344864                       # miss rate for ReadCleanReq accesses
system.l2.ReadCleanReq_avg_miss_latency::.cpu.inst 76789.351852                       # average ReadCleanReq miss latency
system.l2.ReadCleanReq_avg_miss_latency::total 76789.351852                       # average ReadCleanReq miss latency
system.l2.ReadCleanReq_mshr_hits::.cpu.inst            1                       # number of ReadCleanReq MSHR hits
system.l2.ReadCleanReq_mshr_hits::total             1                       # number of ReadCleanReq MSHR hits
system.l2.ReadCleanReq_mshr_misses::.cpu.inst         1295                       # number of ReadCleanReq MSHR misses
system.l2.ReadCleanReq_mshr_misses::total         1295                       # number of ReadCleanReq MSHR misses
system.l2.ReadCleanReq_mshr_miss_latency::.cpu.inst     86505000                       # number of ReadCleanReq MSHR miss cycles
system.l2.ReadCleanReq_mshr_miss_latency::total     86505000                       # number of ReadCleanReq MSHR miss cycles
system.l2.ReadCleanReq_mshr_miss_rate::.cpu.inst     0.344598                       # mshr miss rate for ReadCleanReq accesses
system.l2.ReadCleanReq_mshr_miss_rate::total     0.344598                       # mshr miss rate for ReadCleanReq accesses
system.l2.ReadCleanReq_avg_mshr_miss_latency::.cpu.inst 66799.227799                       # average ReadCleanReq mshr miss latency
system.l2.ReadCleanReq_avg_mshr_miss_latency::total 66799.227799                       # average ReadCleanReq mshr miss latency
system.l2.ReadSharedReq_hits::.cpu.data         11246                       # number of ReadSharedReq hits
system.l2.ReadSharedReq_hits::total             11246                       # number of ReadSharedReq hits
system.l2.ReadSharedReq_misses::.cpu.data          523                       # number of ReadSharedReq misses
system.l2.ReadSharedReq_misses::total             523                       # number of ReadSharedReq misses
system.l2.ReadSharedReq_miss_latency::.cpu.data     41462500                       # number of ReadSharedReq miss cycles
system.l2.ReadSharedReq_miss_latency::total     41462500                       # number of ReadSharedReq miss cycles
system.l2.ReadSharedReq_accesses::.cpu.data        11769                       # number of ReadSharedReq accesses(hits+misses)
system.l2.ReadSharedReq_accesses::total         11769                       # number of ReadSharedReq accesses(hits+misses)
system.l2.ReadSharedReq_miss_rate::.cpu.data     0.044439                       # miss rate for ReadSharedReq accesses
system.l2.ReadSharedReq_miss_rate::total     0.044439                       # miss rate for ReadSharedReq accesses
system.l2.ReadSharedReq_avg_miss_latency::.cpu.data 79278.202677                       # average ReadSharedReq miss latency
system.l2.ReadSharedReq_avg_miss_latency::total 79278.202677                       # average ReadSharedReq miss latency
system.l2.ReadSharedReq_mshr_hits::.cpu.data            6                       # number of ReadSharedReq MSHR hits
system.l2.ReadSharedReq_mshr_hits::total            6                       # number of ReadSharedReq MSHR hits
system.l2.ReadSharedReq_mshr_misses::.cpu.data          517                       # number of ReadSharedReq MSHR misses
system.l2.ReadSharedReq_mshr_misses::total          517                       # number of ReadSharedReq MSHR misses
system.l2.ReadSharedReq_mshr_miss_latency::.cpu.data     35919500                       # number of ReadSharedReq MSHR miss cycles
system.l2.ReadSharedReq_mshr_miss_latency::total     35919500                       # number of ReadSharedReq MSHR miss cycles
system.l2.ReadSharedReq_mshr_miss_rate::.cpu.data     0.043929                       # mshr miss rate for ReadSharedReq accesses
system.l2.ReadSharedReq_mshr_miss_rate::total     0.043929                       # mshr miss rate for ReadSharedReq accesses
system.l2.ReadSharedReq_avg_mshr_miss_latency::.cpu.data 69476.789168                       # average ReadSharedReq mshr miss latency
system.l2.ReadSharedReq_avg_mshr_miss_latency::total 69476.789168                       # average ReadSharedReq mshr miss latency
system.l2.tags.pwrStateResidencyTicks::UNDEFINED  59382627500                       # Cumulative time (in ticks) in various power states
system.l2.tags.tagsinuse                  5273.920258                       # Cycle average of tags in use
system.l2.tags.total_refs                      140563                       # Total number of references to valid blocks.
system.l2.tags.sampled_refs                      5479                       # Sample count of references to valid blocks.
system.l2.tags.avg_refs                     25.654864                       # Average number of references to valid blocks.
system.l2.tags.warmup_cycle                     77000                       # Cycle when the warmup percentage was hit.
system.l2.tags.occ_blocks::.cpu.inst      1288.631738                       # Average occupied blocks per requestor
system.l2.tags.occ_blocks::.cpu.data      3985.288520                       # Average occupied blocks per requestor
system.l2.tags.occ_percent::.cpu.inst        0.039326                       # Average percentage of cache occupancy
system.l2.tags.occ_percent::.cpu.data        0.121621                       # Average percentage of cache occupancy
system.l2.tags.occ_percent::total            0.160947                       # Average percentage of cache occupancy
system.l2.tags.occ_task_id_blocks::1024          5479                       # Occupied blocks per task id
system.l2.tags.age_task_id_blocks_1024::4         5479                       # Occupied blocks per task id
system.l2.tags.occ_task_id_percent::1024     0.167206                       # Percentage of cache occupancy per task id
system.l2.tags.tag_accesses                   1130039                       # Number of tag accesses
system.l2.tags.data_accesses                  1130039                       # Number of data accesses
system.cpu_voltage_domain.voltage                   1                       # Voltage in Volts
system.mem_ctrls.pwrStateResidencyTicks::UNDEFINED  59382627500                       # Cumulative time (in ticks) in various power states
system.mem_ctrls.bytes_read::.cpu.inst          82880                       # Number of bytes read from this memory
system.mem_ctrls.bytes_read::.cpu.data         267776                       # Number of bytes read from this memory
system.mem_ctrls.bytes_read::total             350656                       # Number of bytes read from this memory
system.mem_ctrls.bytes_inst_read::.cpu.inst        82880                       # Number of instructions bytes read from this memory
system.mem_ctrls.bytes_inst_read::total         82880                       # Number of instructions bytes read from this memory
system.mem_ctrls.num_reads::.cpu.inst            1295                       # Number of read requests responded to by this memory
system.mem_ctrls.num_reads::.cpu.data            4184                       # Number of read requests responded to by this memory
system.mem_ctrls.num_reads::total                5479                       # Number of read requests responded to by this memory
system.mem_ctrls.bw_read::.cpu.inst           1395694                       # Total read bandwidth from this memory (bytes/s)
system.mem_ctrls.bw_read::.cpu.data           4509332                       # Total read bandwidth from this memory (bytes/s)
system.mem_ctrls.bw_read::total               5905027                       # Total read bandwidth from this memory (bytes/s)
system.mem_ctrls.bw_inst_read::.cpu.inst      1395694                       # Instruction read bandwidth from this memory (bytes/s)
system.mem_ctrls.bw_inst_read::total          1395694                       # Instruction read bandwidth from this memory (bytes/s)
system.mem_ctrls.bw_total::.cpu.inst          1395694                       # Total bandwidth to/from this memory (bytes/s)
system.mem_ctrls.bw_total::.cpu.data          4509332                       # Total bandwidth to/from this memory (bytes/s)
system.mem_ctrls.bw_total::total              5905027                       # Total bandwidth to/from this memory (bytes/s)
system.mem_ctrls.avgPriority_.cpu.inst::samples      1295.00                       # Average QoS priority value for accepted requests
system.mem_ctrls.avgPriority_.cpu.data::samples      4184.00                       # Average QoS priority value for accepted requests
system.mem_ctrls.priorityMinLatency      0.000000018750                       # per QoS priority minimum request to response latency (s)
system.mem_ctrls.priorityMaxLatency      0.000000577000                       # per QoS priority maximum request to response latency (s)
system.mem_ctrls.numReadWriteTurnArounds            0                       # Number of turnarounds from READ to WRITE
system.mem_ctrls.numWriteReadTurnArounds            0                       # Number of turnarounds from WRITE to READ
system.mem_ctrls.numStayReadState               26197                       # Number of times bus staying in READ state
system.mem_ctrls.numStayWriteState                  0                       # Number of times bus staying in WRITE state
system.mem_ctrls.readReqs                        5479                       # Number of read requests accepted
system.mem_ctrls.writeReqs                          0                       # Number of write requests accepted
system.mem_ctrls.readBursts                      5479                       # Number of DRAM read bursts, including those serviced by the write queue
system.mem_ctrls.writeBursts                        0                       # Number of DRAM write bursts, including those merged in the write queue
system.mem_ctrls.servicedByWrQ                      0                       # Number of DRAM read bursts serviced by the write queue
system.mem_ctrls.mergedWrBursts                     0                       # Number of DRAM write bursts merged with an existing one
system.mem_ctrls.neitherReadNorWriteReqs            0                       # Number of requests that are neither read nor write
system.mem_ctrls.perBankRdBursts::0               252                       # Per bank write bursts
system.mem_ctrls.perBankRdBursts::1               295                       # Per bank write bursts
system.mem_ctrls.perBankRdBursts::2               184                       # Per bank write bursts
system.mem_ctrls.perBankRdBursts::3               374                       # Per bank write bursts
system.mem_ctrls.perBankRdBursts::4               418                       # Per bank write bursts
system.mem_ctrls.perBankRdBursts::5               373                       # Per bank write bursts
system.mem_ctrls.perBankRdBursts::6               377                       # Per bank write bursts
system.mem_ctrls.perBankRdBursts::7               400                       # Per bank write bursts
system.mem_ctrls.perBankRdBursts::8               358                       # Per bank write bursts
system.mem_ctrls.perBankRdBursts::9               370                       # Per bank write bursts
system.mem_ctrls.perBankRdBursts::10              408                       # Per bank write bursts
system.mem_ctrls.perBankRdBursts::11              288                       # Per bank write bursts
system.mem_ctrls.perBankRdBursts::12              311                       # Per bank write bursts
system.mem_ctrls.perBankRdBursts::13              339                       # Per bank write bursts
system.mem_ctrls.perBankRdBursts::14              399                       # Per bank write bursts
system.mem_ctrls.perBankRdBursts::15              333                       # Per bank write bursts
system.mem_ctrls.perBankWrBursts::0                 0                       # Per bank write bursts
system.mem_ctrls.perBankWrBursts::1                 0                       # Per bank write bursts
system.mem_ctrls.perBankWrBursts::2                 0                       # Per bank write bursts
system.mem_ctrls.perBankWrBursts::3                 0                       # Per bank write bursts
system.mem_ctrls.perBankWrBursts::4                 0                       # Per bank write bursts
system.mem_ctrls.perBankWrBursts::5                 0                       # Per bank write bursts
system.mem_ctrls.perBankWrBursts::6                 0                       # Per bank write bursts
system.mem_ctrls.perBankWrBursts::7                 0                       # Per bank write bursts
system.mem_ctrls.perBankWrBursts::8                 0                       # Per bank write bursts
system.mem_ctrls.perBankWrBursts::9                 0                       # Per bank write bursts
system.mem_ctrls.perBankWrBursts::10                0                       # Per bank write bursts
system.mem_ctrls.perBankWrBursts::11                0                       # Per bank write bursts
system.mem_ctrls.perBankWrBursts::12                0                       # Per bank write bursts
system.mem_ctrls.perBankWrBursts::13                0                       # Per bank write bursts
system.mem_ctrls.perBankWrBursts::14                0                       # Per bank write bursts
system.mem_ctrls.perBankWrBursts::15                0                       # Per bank write bursts
system.mem_ctrls.avgRdQLen                       1.00                       # Average read queue length when enqueuing
system.mem_ctrls.avgWrQLen                       0.00                       # Average write queue length when enqueuing
system.mem_ctrls.totQLat                     39563250                       # Total ticks spent queuing
system.mem_ctrls.totBusLat                   27395000                       # Total ticks spent in databus transfers
system.mem_ctrls.totMemAccLat               142294500                       # Total ticks spent from burst creation until serviced by the DRAM
system.mem_ctrls.avgQLat                      7220.89                       # Average queueing delay per DRAM burst
system.mem_ctrls.avgBusLat                    5000.00                       # Average bus latency per DRAM burst
system.mem_ctrls.avgMemAccLat                25970.89                       # Average memory access latency per DRAM burst
system.mem_ctrls.numRdRetry                         0                       # Number of times read queue was full causing retry
system.mem_ctrls.numWrRetry                         0                       # Number of times write queue was full causing retry
system.mem_ctrls.readRowHits                     4201                       # Number of row buffer hits during reads
system.mem_ctrls.writeRowHits                       0                       # Number of row buffer hits during writes
system.mem_ctrls.readRowHitRate                 76.67                       # Row buffer hit rate for reads
system.mem_ctrls.writeRowHitRate                  nan                       # Row buffer hit rate for writes
system.mem_ctrls.readPktSize::0                     0                       # Read request sizes (log2)
system.mem_ctrls.readPktSize::1                     0                       # Read request sizes (log2)
system.mem_ctrls.readPktSize::2                     0                       # Read request sizes (log2)
system.mem_ctrls.readPktSize::3                     0                       # Read request sizes (log2)
system.mem_ctrls.readPktSize::4                     0                       # Read request sizes (log2)
system.mem_ctrls.readPktSize::5                     0                       # Read request sizes (log2)
system.mem_ctrls.readPktSize::6                  5479                       # Read request sizes (log2)
system.mem_ctrls.writePktSize::0                    0                       # Write request sizes (log2)
system.mem_ctrls.writePktSize::1                    0                       # Write request sizes (log2)
system.mem_ctrls.writePktSize::2                    0                       # Write request sizes (log2)
system.mem_ctrls.writePktSize::3                    0                       # Write request sizes (log2)
system.mem_ctrls.writePktSize::4                    0                       # Write request sizes (log2)
system.mem_ctrls.writePktSize::5                    0                       # Write request sizes (log2)
system.mem_ctrls.writePktSize::6                    0                       # Write request sizes (log2)
system.mem_ctrls.rdQLenPdf::0                    5152                       # What read queue length does an incoming req see
system.mem_ctrls.rdQLenPdf::1                     303                       # What read queue length does an incoming req see
system.mem_ctrls.rdQLenPdf::2                      22                       # What read queue length does an incoming req see
system.mem_ctrls.rdQLenPdf::3                       2                       # What read queue length does an incoming req see
system.mem_ctrls.rdQLenPdf::4                       0                       # What read queue length does an incoming req see
system.mem_ctrls.rdQLenPdf::5                       0                       # What read queue length does an incoming req see
system.mem_ctrls.rdQLenPdf::6                       0                       # What read queue length does an incoming req see
system.mem_ctrls.rdQLenPdf::7                       0                       # What read queue length does an incoming req see
system.mem_ctrls.rdQLenPdf::8                       0                       # What read queue length does an incoming req see
system.mem_ctrls.rdQLenPdf::9                       0                       # What read queue length does an incoming req see
system.mem_ctrls.rdQLenPdf::10                      0                       # What read queue length does an incoming req see
system.mem_ctrls.rdQLenPdf::11                      0                       # What read queue length does an incoming req see
system.mem_ctrls.rdQLenPdf::12                      0                       # What read queue length does an incoming req see
system.mem_ctrls.rdQLenPdf::13                      0                       # What read queue length does an incoming req see
system.mem_ctrls.rdQLenPdf::14                      0                       # What read queue length does an incoming req see
system.mem_ctrls.rdQLenPdf::15                      0                       # What read queue length does an incoming req see
system.mem_ctrls.rdQLenPdf::16                      0                       # What read queue length does an incoming req see
system.mem_ctrls.rdQLenPdf::17                      0                       # What read queue length does an incoming req see
system.mem_ctrls.rdQLenPdf::18                      0                       # What read queue length does an incoming req see
system.mem_ctrls.rdQLenPdf::19                      0                       # What read queue length does an incoming req see
system.mem_ctrls.rdQLenPdf::20                      0                       # What read queue length does an incoming req see
system.mem_ctrls.rdQLenPdf::21                      0                       # What read queue length does an incoming req see
system.mem_ctrls.rdQLenPdf::22                      0                       # What read queue length does an incoming req see
system.mem_ctrls.rdQLenPdf::23                      0                       # What read queue length does an incoming req see
system.mem_ctrls.rdQLenPdf::24                      0                       # What read queue length does an incoming req see
system.mem_ctrls.rdQLenPdf::25                      0                       # What read queue length does an incoming req see
system.mem_ctrls.rdQLenPdf::26                      0                       # What read queue length does an incoming req see
system.mem_ctrls.rdQLenPdf::27                      0                       # What read queue length does an incoming req see
system.mem_ctrls.rdQLenPdf::28                      0                       # What read queue length does an incoming req see
system.mem_ctrls.rdQLenPdf::29                      0                       # What read queue length does an incoming req see
system.mem_ctrls.rdQLenPdf::30                      0                       # What read queue length does an incoming req see
system.mem_ctrls.rdQLenPdf::31                      0                       # What read queue length does an incoming req see
system.mem_ctrls.wrQLenPdf::0                       0                       # What write queue length does an incoming req see
system.mem_ctrls.wrQLenPdf::1                       0                       # What write queue length does an incoming req see
system.mem_ctrls.wrQLenPdf::2                       0                       # What write queue length does an incoming req see
system.mem_ctrls.wrQLenPdf::3                       0                       # What write queue length does an incoming req see
system.mem_ctrls.wrQLenPdf::4                       0                       # What write queue length does an incoming req see
system.mem_ctrls.wrQLenPdf::5                       0                       # What write queue length does an incoming req see
system.mem_ctrls.wrQLenPdf::6                       0                       # What write queue length does an incoming req see
system.mem_ctrls.wrQLenPdf::7                       0                       # What write queue length does an incoming req see
system.mem_ctrls.wrQLenPdf::8                       0                       # What write queue length does an incoming req see
system.mem_ctrls.wrQLenPdf::9                       0                       # What write queue length does an incoming req see
system.mem_ctrls.wrQLenPdf::10                      0                       # What write queue length does an incoming req see
system.mem_ctrls.wrQLenPdf::11                      0                       # What write queue length does an incoming req see
system.mem_ctrls.wrQLenPdf::12                      0                       # What write queue length does an incoming req see
system.mem_ctrls.wrQLenPdf::13                      0                       # What write queue length does an incoming req see
system.mem_ctrls.wrQLenPdf::14                      0                       # What write queue length does an incoming req see
system.mem_ctrls.wrQLenPdf::15                      0                       # What write queue length does an incoming req see
system.mem_ctrls.wrQLenPdf::16                      0                       # What write queue length does an incoming req see
system.mem_ctrls.wrQLenPdf::17                      0                       # What write queue length does an incoming req see
system.mem_ctrls.wrQLenPdf::18                      0                       # What write queue length does an incoming req see
system.mem_ctrls.wrQLenPdf::19                      0                       # What write queue length does an incoming req see
system.mem_ctrls.wrQLenPdf::20                      0                       # What write queue length does an incoming req see
system.mem_ctrls.wrQLenPdf::21                      0                       # What write queue length does an incoming req see
system.mem_ctrls.wrQLenPdf::22                      0                       # What write queue length does an incoming req see
system.mem_ctrls.wrQLenPdf::23                      0                       # What write queue length does an incoming req see
system.mem_ctrls.wrQLenPdf::24                      0                       # What write queue length does an incoming req see
system.mem_ctrls.wrQLenPdf::25                      0                       # What write queue length does an incoming req see
system.mem_ctrls.wrQLenPdf::26                      0                       # What write queue length does an incoming req see
system.mem_ctrls.wrQLenPdf::27                      0                       # What write queue length does an incoming req see
system.mem_ctrls.wrQLenPdf::28                      0                       # What write queue length does an incoming req see
system.mem_ctrls.wrQLenPdf::29                      0                       # What write queue length does an incoming req see
system.mem_ctrls.wrQLenPdf::30                      0                       # What write queue length does an incoming req see
system.mem_ctrls.wrQLenPdf::31                      0                       # What write queue length does an incoming req see
system.mem_ctrls.wrQLenPdf::32                      0                       # What write queue length does an incoming req see
system.mem_ctrls.wrQLenPdf::33                      0                       # What write queue length does an incoming req see
system.mem_ctrls.wrQLenPdf::34                      0                       # What write queue length does an incoming req see
system.mem_ctrls.wrQLenPdf::35                      0                       # What write queue length does an incoming req see
system.mem_ctrls.wrQLenPdf::36                      0                       # What write queue length does an incoming req see
system.mem_ctrls.wrQLenPdf::37                      0                       # What write queue length does an incoming req see
system.mem_ctrls.wrQLenPdf::38                      0                       # What write queue length does an incoming req see
system.mem_ctrls.wrQLenPdf::39                      0                       # What write queue length does an incoming req see
system.mem_ctrls.wrQLenPdf::40                      0                       # What write queue length does an incoming req see
system.mem_ctrls.wrQLenPdf::41                      0                       # What write queue length does an incoming req see
system.mem_ctrls.wrQLenPdf::42                      0                       # What write queue length does an incoming req see
system.mem_ctrls.wrQLenPdf::43                      0                       # What write queue length does an incoming req see
system.mem_ctrls.wrQLenPdf::44                      0                       # What write queue length does an incoming req see
system.mem_ctrls.wrQLenPdf::45                      0                       # What write queue length does an incoming req see
system.mem_ctrls.wrQLenPdf::46                      0                       # What write queue length does an incoming req see
system.mem_ctrls.wrQLenPdf::47                      0                       # What write queue length does an incoming req see
system.mem_ctrls.wrQLenPdf::48                      0                       # What write queue length does an incoming req see
system.mem_ctrls.wrQLenPdf::49                      0                       # What write queue length does an incoming req see
system.mem_ctrls.wrQLenPdf::50                      0                       # What write queue length does an incoming req see
system.mem_ctrls.wrQLenPdf::51                      0                       # What write queue length does an incoming req see
system.mem_ctrls.wrQLenPdf::52                      0                       # What write queue length does an incoming req see
system.mem_ctrls.wrQLenPdf::53                      0                       # What write queue length does an incoming req see
system.mem_ctrls.wrQLenPdf::54                      0                       # What write queue length does an incoming req see
system.mem_ctrls.wrQLenPdf::55                      0                       # What write queue length does an incoming req see
system.mem_ctrls.wrQLenPdf::56                      0                       # What write queue length does an incoming req see
system.mem_ctrls.wrQLenPdf::57                      0                       # What write queue length does an incoming req see
system.mem_ctrls.wrQLenPdf::58                      0                       # What write queue length does an incoming req see
system.mem_ctrls.wrQLenPdf::59                      0                       # What write queue length does an incoming req see
system.mem_ctrls.wrQLenPdf::60                      0                       # What write queue length does an incoming req see
system.mem_ctrls.wrQLenPdf::61                      0                       # What write queue length does an incoming req see
system.mem_ctrls.wrQLenPdf::62                      0                       # What write queue length does an incoming req see
system.mem_ctrls.wrQLenPdf::63                      0                       # What write queue length does an incoming req see
system.mem_ctrls.bytesPerActivate::samples         1278                       # Bytes accessed per row activation
system.mem_ctrls.bytesPerActivate::mean    274.378717                       # Bytes accessed per row activation
system.mem_ctrls.bytesPerActivate::gmean   184.630825                       # Bytes accessed per row activation
system.mem_ctrls.bytesPerActivate::stdev   285.282842                       # Bytes accessed per row activation
system.mem_ctrls.bytesPerActivate::0-127          334     26.13%     26.13% # Bytes accessed per row activation
system.mem_ctrls.bytesPerActivate::128-255          561     43.90%     70.03% # Bytes accessed per row activation
system.mem_ctrls.bytesPerActivate::256-383          147     11.50%     81.53% # Bytes accessed per row activation
system.mem_ctrls.bytesPerActivate::384-511           48      3.76%     85.29% # Bytes accessed per row activation
system.mem_ctrls.bytesPerActivate::512-639           25      1.96%     87.25% # Bytes accessed per row activation
system.mem_ctrls.bytesPerActivate::640-767           13      1.02%     88.26% # Bytes accessed per row activation
system.mem_ctrls.bytesPerActivate::768-895           13      1.02%     89.28% # Bytes accessed per row activation
system.mem_ctrls.bytesPerActivate::896-1023           14      1.10%     90.38% # Bytes accessed per row activation
system.mem_ctrls.bytesPerActivate::1024-1151          123      9.62%    100.00% # Bytes accessed per row activation
system.mem_ctrls.bytesPerActivate::total         1278                       # Bytes accessed per row activation
system.mem_ctrls.bytesReadDRAM                 350656                       # Total number of bytes read from DRAM
system.mem_ctrls.bytesReadWrQ                       0                       # Total number of bytes read from write queue
system.mem_ctrls.bytesWritten                       0                       # Total number of bytes written to DRAM
system.mem_ctrls.bytesReadSys                  350656                       # Total read bytes from the system interface side
system.mem_ctrls.bytesWrittenSys                    0                       # Total written bytes from the system interface side
system.mem_ctrls.avgRdBW                         5.91                       # Average DRAM read bandwidth in MiByte/s
system.mem_ctrls.avgWrBW                         0.00                       # Average achieved write bandwidth in MiByte/s
system.mem_ctrls.avgRdBWSys                      5.91                       # Average system read bandwidth in MiByte/s
system.mem_ctrls.avgWrBWSys                      0.00                       # Average system write bandwidth in MiByte/s
system.mem_ctrls.peakBW                      12800.00                       # Theoretical peak bandwidth in MiByte/s
system.mem_ctrls.busUtil                         0.05                       # Data bus utilization in percentage
system.mem_ctrls.busUtilRead                     0.05                       # Data bus utilization in percentage for reads
system.mem_ctrls.busUtilWrite                    0.00                       # Data bus utilization in percentage for writes
system.mem_ctrls.totGap                   16100948000                       # Total gap between requests
system.mem_ctrls.avgGap                    2938665.45                       # Average gap between requests
system.mem_ctrls.masterReadBytes::.cpu.inst        82880                       # Per-master bytes read from memory
system.mem_ctrls.masterReadBytes::.cpu.data       267776                       # Per-master bytes read from memory
system.mem_ctrls.masterReadRate::.cpu.inst 1395694.388901872095                       # Per-master bytes read from memory rate (Bytes/sec)
system.mem_ctrls.masterReadRate::.cpu.data 4509332.295880642720                       # Per-master bytes read from memory rate (Bytes/sec)
system.mem_ctrls.masterReadAccesses::.cpu.inst         1295                       # Per-master read serviced memory accesses
system.mem_ctrls.masterReadAccesses::.cpu.data         4184                       # Per-master read serviced memory accesses
system.mem_ctrls.masterReadTotalLat::.cpu.inst     33482750                       # Per-master read total memory access latency
system.mem_ctrls.masterReadTotalLat::.cpu.data    108811750                       # Per-master read total memory access latency
system.mem_ctrls.masterReadAvgLat::.cpu.inst     25855.41                       # Per-master read average memory access latency
system.mem_ctrls.masterReadAvgLat::.cpu.data     26006.63                       # Per-master read average memory access latency
system.mem_ctrls.pageHitRate                    76.67                       # Row buffer hit rate, read and write combined
system.mem_ctrls.rank1.actEnergy              4476780                       # Energy for activate commands per rank (pJ)
[...]
system.cpu.icache.tags.age_task_id_blocks_1024::2           12                       # Occupied blocks per task id
system.cpu.icache.tags.age_task_id_blocks_1024::3           14                       # Occupied blocks per task id
system.cpu.icache.tags.age_task_id_blocks_1024::4          482                       # Occupied blocks per task id
system.cpu.icache.tags.occ_task_id_percent::1024     0.992188                       # Percentage of cache occupancy per task id
system.cpu.icache.tags.tag_accesses          34635126                       # Number of tag accesses
system.cpu.icache.tags.data_accesses         34635126                       # Number of data accesses
system.cpu.dtb.walker.pwrStateResidencyTicks::UNDEFINED  59382627500                       # Cumulative time (in ticks) in various power states
system.cpu.dtb.stage2_mmu.stage2_tlb.walker.pwrStateResidencyTicks::UNDEFINED  59382627500                       # Cumulative time (in ticks) in various power states
system.cpu.dcache.pwrStateResidencyTicks::UNDEFINED  59382627500                       # Cumulative time (in ticks) in various power states
system.cpu.dcache.demand_hits::.cpu.data     43887679                       # number of demand (read+write) hits
system.cpu.dcache.demand_hits::total         43887679                       # number of demand (read+write) hits
system.cpu.dcache.overall_hits::.cpu.data     43896261                       # number of overall hits
system.cpu.dcache.overall_hits::total        43896261                       # number of overall hits
system.cpu.dcache.demand_misses::.cpu.data        72908                       # number of demand (read+write) misses
system.cpu.dcache.demand_misses::total          72908                       # number of demand (read+write) misses
system.cpu.dcache.overall_misses::.cpu.data        73058                       # number of overall misses
system.cpu.dcache.overall_misses::total         73058                       # number of overall misses
system.cpu.dcache.demand_miss_latency::.cpu.data   1370366000                       # number of demand (read+write) miss cycles
system.cpu.dcache.demand_miss_latency::total   1370366000                       # number of demand (read+write) miss cycles
system.cpu.dcache.overall_miss_latency::.cpu.data   1370366000                       # number of overall miss cycles
system.cpu.dcache.overall_miss_latency::total   1370366000                       # number of overall miss cycles
system.cpu.dcache.demand_accesses::.cpu.data     43960587                       # number of demand (read+write) accesses
system.cpu.dcache.demand_accesses::total     43960587                       # number of demand (read+write) accesses
system.cpu.dcache.overall_accesses::.cpu.data     43969319                       # number of overall (read+write) accesses
system.cpu.dcache.overall_accesses::total     43969319                       # number of overall (read+write) accesses
system.cpu.dcache.demand_miss_rate::.cpu.data     0.001658                       # miss rate for demand accesses
system.cpu.dcache.demand_miss_rate::total     0.001658                       # miss rate for demand accesses
system.cpu.dcache.overall_miss_rate::.cpu.data     0.001662                       # miss rate for overall accesses
system.cpu.dcache.overall_miss_rate::total     0.001662                       # miss rate for overall accesses
system.cpu.dcache.demand_avg_miss_latency::.cpu.data 18795.824875                       # average overall miss latency
system.cpu.dcache.demand_avg_miss_latency::total 18795.824875                       # average overall miss latency
system.cpu.dcache.overall_avg_miss_latency::.cpu.data 18757.233978                       # average overall miss latency
system.cpu.dcache.overall_avg_miss_latency::total 18757.233978                       # average overall miss latency
system.cpu.dcache.blocked_cycles::no_mshrs          222                       # number of cycles access was blocked
system.cpu.dcache.blocked_cycles::no_targets            0                       # number of cycles access was blocked
system.cpu.dcache.blocked::no_mshrs                 2                       # number of cycles access was blocked
system.cpu.dcache.blocked::no_targets               0                       # number of cycles access was blocked
system.cpu.dcache.avg_blocked_cycles::no_mshrs          111                       # average number of cycles each access was blocked
system.cpu.dcache.avg_blocked_cycles::no_targets          nan                       # average number of cycles each access was blocked
system.cpu.dcache.writebacks::.writebacks        64795                       # number of writebacks
system.cpu.dcache.writebacks::total             64795                       # number of writebacks
system.cpu.dcache.demand_mshr_hits::.cpu.data         5320                       # number of demand (read+write) MSHR hits
system.cpu.dcache.demand_mshr_hits::total         5320                       # number of demand (read+write) MSHR hits
system.cpu.dcache.overall_mshr_hits::.cpu.data         5320                       # number of overall MSHR hits
system.cpu.dcache.overall_mshr_hits::total         5320                       # number of overall MSHR hits
system.cpu.dcache.demand_mshr_misses::.cpu.data        67588                       # number of demand (read+write) MSHR misses
system.cpu.dcache.demand_mshr_misses::total        67588                       # number of demand (read+write) MSHR misses
system.cpu.dcache.overall_mshr_misses::.cpu.data        67725                       # number of overall MSHR misses
system.cpu.dcache.overall_mshr_misses::total        67725                       # number of overall MSHR misses
system.cpu.dcache.demand_mshr_miss_latency::.cpu.data   1085047000                       # number of demand (read+write) MSHR miss cycles
system.cpu.dcache.demand_mshr_miss_latency::total   1085047000                       # number of demand (read+write) MSHR miss cycles
system.cpu.dcache.overall_mshr_miss_latency::.cpu.data   1092966000                       # number of overall MSHR miss cycles
system.cpu.dcache.overall_mshr_miss_latency::total   1092966000                       # number of overall MSHR miss cycles
system.cpu.dcache.demand_mshr_miss_rate::.cpu.data     0.001537                       # mshr miss rate for demand accesses
system.cpu.dcache.demand_mshr_miss_rate::total     0.001537                       # mshr miss rate for demand accesses
system.cpu.dcache.overall_mshr_miss_rate::.cpu.data     0.001540                       # mshr miss rate for overall accesses
system.cpu.dcache.overall_mshr_miss_rate::total     0.001540                       # mshr miss rate for overall accesses
system.cpu.dcache.demand_avg_mshr_miss_latency::.cpu.data 16053.840919                       # average overall mshr miss latency
system.cpu.dcache.demand_avg_mshr_miss_latency::total 16053.840919                       # average overall mshr miss latency
system.cpu.dcache.overall_avg_mshr_miss_latency::.cpu.data 16138.294574                       # average overall mshr miss latency
system.cpu.dcache.overall_avg_mshr_miss_latency::total 16138.294574                       # average overall mshr miss latency
system.cpu.dcache.replacements                  66702                       # number of replacements
system.cpu.dcache.ReadReq_hits::.cpu.data     37627996                       # number of ReadReq hits
system.cpu.dcache.ReadReq_hits::total        37627996                       # number of ReadReq hits
system.cpu.dcache.ReadReq_misses::.cpu.data        11743                       # number of ReadReq misses
system.cpu.dcache.ReadReq_misses::total         11743                       # number of ReadReq misses
system.cpu.dcache.ReadReq_miss_latency::.cpu.data    186026500                       # number of ReadReq miss cycles
system.cpu.dcache.ReadReq_miss_latency::total    186026500                       # number of ReadReq miss cycles
system.cpu.dcache.ReadReq_accesses::.cpu.data     37639739                       # number of ReadReq accesses(hits+misses)
system.cpu.dcache.ReadReq_accesses::total     37639739                       # number of ReadReq accesses(hits+misses)
system.cpu.dcache.ReadReq_miss_rate::.cpu.data     0.000312                       # miss rate for ReadReq accesses
system.cpu.dcache.ReadReq_miss_rate::total     0.000312                       # miss rate for ReadReq accesses
system.cpu.dcache.ReadReq_avg_miss_latency::.cpu.data 15841.480031                       # average ReadReq miss latency
system.cpu.dcache.ReadReq_avg_miss_latency::total 15841.480031                       # average ReadReq miss latency
system.cpu.dcache.ReadReq_mshr_hits::.cpu.data          112                       # number of ReadReq MSHR hits
system.cpu.dcache.ReadReq_mshr_hits::total          112                       # number of ReadReq MSHR hits
system.cpu.dcache.ReadReq_mshr_misses::.cpu.data        11631                       # number of ReadReq MSHR misses
system.cpu.dcache.ReadReq_mshr_misses::total        11631                       # number of ReadReq MSHR misses
system.cpu.dcache.ReadReq_mshr_miss_latency::.cpu.data    170055500                       # number of ReadReq MSHR miss cycles
system.cpu.dcache.ReadReq_mshr_miss_latency::total    170055500                       # number of ReadReq MSHR miss cycles
system.cpu.dcache.ReadReq_mshr_miss_rate::.cpu.data     0.000309                       # mshr miss rate for ReadReq accesses
system.cpu.dcache.ReadReq_mshr_miss_rate::total     0.000309                       # mshr miss rate for ReadReq accesses
system.cpu.dcache.ReadReq_avg_mshr_miss_latency::.cpu.data 14620.883845                       # average ReadReq mshr miss latency
system.cpu.dcache.ReadReq_avg_mshr_miss_latency::total 14620.883845                       # average ReadReq mshr miss latency
system.cpu.dcache.WriteReq_hits::.cpu.data      6259683                       # number of WriteReq hits
system.cpu.dcache.WriteReq_hits::total        6259683                       # number of WriteReq hits
system.cpu.dcache.WriteReq_misses::.cpu.data        61165                       # number of WriteReq misses
system.cpu.dcache.WriteReq_misses::total        61165                       # number of WriteReq misses
system.cpu.dcache.WriteReq_miss_latency::.cpu.data   1184339500                       # number of WriteReq miss cycles
system.cpu.dcache.WriteReq_miss_latency::total   1184339500                       # number of WriteReq miss cycles
system.cpu.dcache.WriteReq_accesses::.cpu.data      6320848                       # number of WriteReq accesses(hits+misses)
system.cpu.dcache.WriteReq_accesses::total      6320848                       # number of WriteReq accesses(hits+misses)
system.cpu.dcache.WriteReq_miss_rate::.cpu.data     0.009677                       # miss rate for WriteReq accesses
system.cpu.dcache.WriteReq_miss_rate::total     0.009677                       # miss rate for WriteReq accesses
system.cpu.dcache.WriteReq_avg_miss_latency::.cpu.data 19363.026240                       # average WriteReq miss latency
system.cpu.dcache.WriteReq_avg_miss_latency::total 19363.026240                       # average WriteReq miss latency
system.cpu.dcache.WriteReq_mshr_hits::.cpu.data         5208                       # number of WriteReq MSHR hits
system.cpu.dcache.WriteReq_mshr_hits::total         5208                       # number of WriteReq MSHR hits
system.cpu.dcache.WriteReq_mshr_misses::.cpu.data        55957                       # number of WriteReq MSHR misses
system.cpu.dcache.WriteReq_mshr_misses::total        55957                       # number of WriteReq MSHR misses
system.cpu.dcache.WriteReq_mshr_miss_latency::.cpu.data    914991500                       # number of WriteReq MSHR miss cycles
system.cpu.dcache.WriteReq_mshr_miss_latency::total    914991500                       # number of WriteReq MSHR miss cycles
system.cpu.dcache.WriteReq_mshr_miss_rate::.cpu.data     0.008853                       # mshr miss rate for WriteReq accesses
system.cpu.dcache.WriteReq_mshr_miss_rate::total     0.008853                       # mshr miss rate for WriteReq accesses
system.cpu.dcache.WriteReq_avg_mshr_miss_latency::.cpu.data 16351.689690                       # average WriteReq mshr miss latency
system.cpu.dcache.WriteReq_avg_mshr_miss_latency::total 16351.689690                       # average WriteReq mshr miss latency
system.cpu.dcache.SoftPFReq_hits::.cpu.data         8582                       # number of SoftPFReq hits
system.cpu.dcache.SoftPFReq_hits::total          8582                       # number of SoftPFReq hits
system.cpu.dcache.SoftPFReq_misses::.cpu.data          150                       # number of SoftPFReq misses
system.cpu.dcache.SoftPFReq_misses::total          150                       # number of SoftPFReq misses
system.cpu.dcache.SoftPFReq_accesses::.cpu.data         8732                       # number of SoftPFReq accesses(hits+misses)
system.cpu.dcache.SoftPFReq_accesses::total         8732                       # number of SoftPFReq accesses(hits+misses)
system.cpu.dcache.SoftPFReq_miss_rate::.cpu.data     0.017178                       # miss rate for SoftPFReq accesses
system.cpu.dcache.SoftPFReq_miss_rate::total     0.017178                       # miss rate for SoftPFReq accesses
system.cpu.dcache.SoftPFReq_mshr_misses::.cpu.data          137                       # number of SoftPFReq MSHR misses
system.cpu.dcache.SoftPFReq_mshr_misses::total          137                       # number of SoftPFReq MSHR misses
system.cpu.dcache.SoftPFReq_mshr_miss_latency::.cpu.data      7919000                       # number of SoftPFReq MSHR miss cycles
system.cpu.dcache.SoftPFReq_mshr_miss_latency::total      7919000                       # number of SoftPFReq MSHR miss cycles
system.cpu.dcache.SoftPFReq_mshr_miss_rate::.cpu.data     0.015689                       # mshr miss rate for SoftPFReq accesses
system.cpu.dcache.SoftPFReq_mshr_miss_rate::total     0.015689                       # mshr miss rate for SoftPFReq accesses
system.cpu.dcache.SoftPFReq_avg_mshr_miss_latency::.cpu.data 57802.919708                       # average SoftPFReq mshr miss latency
system.cpu.dcache.SoftPFReq_avg_mshr_miss_latency::total 57802.919708                       # average SoftPFReq mshr miss latency
system.cpu.dcache.LoadLockedReq_hits::.cpu.data          165                       # number of LoadLockedReq hits
system.cpu.dcache.LoadLockedReq_hits::total          165                       # number of LoadLockedReq hits
system.cpu.dcache.LoadLockedReq_misses::.cpu.data            1                       # number of LoadLockedReq misses
system.cpu.dcache.LoadLockedReq_misses::total            1                       # number of LoadLockedReq misses
system.cpu.dcache.LoadLockedReq_miss_latency::.cpu.data        86000                       # number of LoadLockedReq miss cycles
system.cpu.dcache.LoadLockedReq_miss_latency::total        86000                       # number of LoadLockedReq miss cycles
system.cpu.dcache.LoadLockedReq_accesses::.cpu.data          166                       # number of LoadLockedReq accesses(hits+misses)
system.cpu.dcache.LoadLockedReq_accesses::total          166                       # number of LoadLockedReq accesses(hits+misses)
system.cpu.dcache.LoadLockedReq_miss_rate::.cpu.data     0.006024                       # miss rate for LoadLockedReq accesses
system.cpu.dcache.LoadLockedReq_miss_rate::total     0.006024                       # miss rate for LoadLockedReq accesses
system.cpu.dcache.LoadLockedReq_avg_miss_latency::.cpu.data        86000                       # average LoadLockedReq miss latency
system.cpu.dcache.LoadLockedReq_avg_miss_latency::total        86000                       # average LoadLockedReq miss latency
system.cpu.dcache.LoadLockedReq_mshr_misses::.cpu.data            1                       # number of LoadLockedReq MSHR misses
system.cpu.dcache.LoadLockedReq_mshr_misses::total            1                       # number of LoadLockedReq MSHR misses
system.cpu.dcache.LoadLockedReq_mshr_miss_latency::.cpu.data        85000                       # number of LoadLockedReq MSHR miss cycles
system.cpu.dcache.LoadLockedReq_mshr_miss_latency::total        85000                       # number of LoadLockedReq MSHR miss cycles
system.cpu.dcache.LoadLockedReq_mshr_miss_rate::.cpu.data     0.006024                       # mshr miss rate for LoadLockedReq accesses
system.cpu.dcache.LoadLockedReq_mshr_miss_rate::total     0.006024                       # mshr miss rate for LoadLockedReq accesses
system.cpu.dcache.LoadLockedReq_avg_mshr_miss_latency::.cpu.data        85000                       # average LoadLockedReq mshr miss latency
system.cpu.dcache.LoadLockedReq_avg_mshr_miss_latency::total        85000                       # average LoadLockedReq mshr miss latency
system.cpu.dcache.StoreCondReq_hits::.cpu.data          166                       # number of StoreCondReq hits
system.cpu.dcache.StoreCondReq_hits::total          166                       # number of StoreCondReq hits
system.cpu.dcache.StoreCondReq_accesses::.cpu.data          166                       # number of StoreCondReq accesses(hits+misses)
system.cpu.dcache.StoreCondReq_accesses::total          166                       # number of StoreCondReq accesses(hits+misses)
system.cpu.dcache.tags.pwrStateResidencyTicks::UNDEFINED  59382627500                       # Cumulative time (in ticks) in various power states
system.cpu.dcache.tags.tagsinuse          1015.359334                       # Cycle average of tags in use
system.cpu.dcache.tags.total_refs            43964318                       # Total number of references to valid blocks.
system.cpu.dcache.tags.sampled_refs             67726                       # Sample count of references to valid blocks.
system.cpu.dcache.tags.avg_refs            649.149780                       # Average number of references to valid blocks.
system.cpu.dcache.tags.warmup_cycle            176500                       # Cycle when the warmup percentage was hit.
system.cpu.dcache.tags.occ_blocks::.cpu.data  1015.359334                       # Average occupied blocks per requestor
system.cpu.dcache.tags.occ_percent::.cpu.data     0.991562                       # Average percentage of cache occupancy
system.cpu.dcache.tags.occ_percent::total     0.991562                       # Average percentage of cache occupancy
system.cpu.dcache.tags.occ_task_id_blocks::1024         1024                       # Occupied blocks per task id
system.cpu.dcache.tags.age_task_id_blocks_1024::0           15                       # Occupied blocks per task id
system.cpu.dcache.tags.age_task_id_blocks_1024::1          143                       # Occupied blocks per task id
system.cpu.dcache.tags.age_task_id_blocks_1024::2          820                       # Occupied blocks per task id
system.cpu.dcache.tags.age_task_id_blocks_1024::3            1                       # Occupied blocks per task id
system.cpu.dcache.tags.age_task_id_blocks_1024::4           45                       # Occupied blocks per task id
system.cpu.dcache.tags.occ_task_id_percent::1024            1                       # Percentage of cache occupancy per task id
system.cpu.dcache.tags.tag_accesses         703582142                       # Number of tag accesses
system.cpu.dcache.tags.data_accesses        703582142                       # Number of data accesses
system.cpu.itb.walker.pwrStateResidencyTicks::UNDEFINED  59382627500                       # Cumulative time (in ticks) in various power states
system.cpu.itb.stage2_mmu.stage2_tlb.walker.pwrStateResidencyTicks::UNDEFINED  59382627500                       # Cumulative time (in ticks) in various power states

---------- End Simulation Statistics   ----------
