
---------- Begin Simulation Statistics ----------
final_tick                               174693774500                       # Number of ticks from beginning of simulation (restored from checkpoints and never reset)
host_inst_rate                                 183687                       # Simulator instruction rate (inst/s)
host_mem_usage                                 694692                       # Number of bytes of host memory used
host_op_rate                                   183694                       # Simulator op (including micro ops) rate (op/s)
host_seconds                                   544.41                       # Real time elapsed on the host
host_tick_rate                              320889333                       # Simulator tick rate (ticks/s)
sim_freq                                 1000000000000                       # Frequency of simulated ticks
sim_insts                                   100000000                       # Number of instructions simulated
sim_ops                                     100003706                       # Number of ops (including micro ops) simulated
sim_seconds                                  0.174694                       # Number of seconds simulated
sim_ticks                                174693774500                       # Number of ticks simulated
system.cpu.branchPred.BTBCorrect                    0                       # Number of correct BTB predictions (this stat may not work properly.
system.cpu.branchPred.BTBHitPct             99.527660                       # BTB Hit Percentage
system.cpu.branchPred.BTBHits                  596947                       # Number of BTB hits
system.cpu.branchPred.BTBLookups               599780                       # Number of BTB lookups
system.cpu.branchPred.RASInCorrect                  7                       # Number of incorrect RAS predictions.
system.cpu.branchPred.condIncorrect               869                       # Number of conditional branches incorrect
system.cpu.branchPred.condPredicted            599954                       # Number of conditional branches predicted
system.cpu.branchPred.indirectHits                163                       # Number of indirect target hits.
system.cpu.branchPred.indirectLookups             369                       # Number of indirect predictor lookups.
system.cpu.branchPred.indirectMisses              206                       # Number of indirect misses.
system.cpu.branchPred.lookups                  602059                       # Number of BP lookups
system.cpu.branchPred.usedRAS                     593                       # Number of times the RAS was used to get a target.
system.cpu.branchPredindirectMispredicted          109                       # Number of mispredicted indirect branches.
system.cpu.committedInsts                   100000000                       # Number of instructions committed
system.cpu.committedOps                     100003706                       # Number of ops (including micro ops) committed
system.cpu.cpi                               3.493875                       # CPI: cycles per instruction
system.cpu.discardedOps                          2635                       # Number of ops (including micro ops) which were discarded before commit
system.cpu.dtb.accesses                             0                       # DTB accesses
system.cpu.dtb.align_faults                         0                       # Number of TLB faults due to alignment restrictions
system.cpu.dtb.domain_faults                        0                       # Number of TLB faults due to domain restrictions
system.cpu.dtb.flush_entries                        0                       # Number of entries that have been flushed from TLB
system.cpu.dtb.flush_tlb                            0                       # Number of times complete TLB was flushed
system.cpu.dtb.flush_tlb_asid                       0                       # Number of times TLB was flushed by ASID
system.cpu.dtb.flush_tlb_mva                        0                       # Number of times TLB was flushed by MVA
system.cpu.dtb.flush_tlb_mva_asid                   0                       # Number of times TLB was flushed by MVA & ASID
system.cpu.dtb.hits                                 0                       # DTB hits
system.cpu.dtb.inst_accesses                        0                       # ITB inst accesses
system.cpu.dtb.inst_hits                            0                       # ITB inst hits
system.cpu.dtb.inst_misses                          0                       # ITB inst misses
system.cpu.dtb.misses                               0                       # DTB misses
system.cpu.dtb.perms_faults                         0                       # Number of TLB faults due to permissions restrictions
system.cpu.dtb.prefetch_faults                      0                       # Number of TLB faults due to prefetch
system.cpu.dtb.read_accesses                        0                       # DTB read accesses
system.cpu.dtb.read_hits                            0                       # DTB read hits
system.cpu.dtb.read_misses                          0                       # DTB read misses
system.cpu.dtb.stage2_mmu.stage2_tlb.accesses            0                       # DTB accesses
system.cpu.dtb.stage2_mmu.stage2_tlb.align_faults            0                       # Number of TLB faults due to alignment restrictions
system.cpu.dtb.stage2_mmu.stage2_tlb.domain_faults            0                       # Number of TLB faults due to domain restrictions
system.cpu.dtb.stage2_mmu.stage2_tlb.flush_entries            0                       # Number of entries that have been flushed from TLB
system.cpu.dtb.stage2_mmu.stage2_tlb.flush_tlb            0                       # Number of times complete TLB was flushed
system.cpu.dtb.stage2_mmu.stage2_tlb.flush_tlb_asid            0                       # Number of times TLB was flushed by ASID
system.cpu.dtb.stage2_mmu.stage2_tlb.flush_tlb_mva            0                       # Number of times TLB was flushed by MVA
system.cpu.dtb.stage2_mmu.stage2_tlb.flush_tlb_mva_asid            0                       # Number of times TLB was flushed by MVA & ASID
system.cpu.dtb.stage2_mmu.stage2_tlb.hits            0                       # DTB hits
system.cpu.dtb.stage2_mmu.stage2_tlb.inst_accesses            0                       # ITB inst accesses
system.cpu.dtb.stage2_mmu.stage2_tlb.inst_hits            0                       # ITB inst hits
system.cpu.dtb.stage2_mmu.stage2_tlb.inst_misses            0                       # ITB inst misses
system.cpu.dtb.stage2_mmu.stage2_tlb.misses            0                       # DTB misses
system.cpu.dtb.stage2_mmu.stage2_tlb.perms_faults            0                       # Number of TLB faults due to permissions restrictions
system.cpu.dtb.stage2_mmu.stage2_tlb.prefetch_faults            0                       # Number of TLB faults due to prefetch
system.cpu.dtb.stage2_mmu.stage2_tlb.read_accesses            0                       # DTB read accesses
system.cpu.dtb.stage2_mmu.stage2_tlb.read_hits            0                       # DTB read hits
system.cpu.dtb.stage2_mmu.stage2_tlb.read_misses            0                       # DTB read misses
system.cpu.dtb.stage2_mmu.stage2_tlb.walker.walkRequestOrigin_Requested::Data            0                       # Table walker requests started/completed, data/inst
system.cpu.dtb.stage2_mmu.stage2_tlb.walker.walkRequestOrigin_Requested::Inst            0                       # Table walker requests started/completed, data/inst
system.cpu.dtb.stage2_mmu.stage2_tlb.walker.walkRequestOrigin_Requested::total            0                       # Table walker requests started/completed, data/inst
system.cpu.dtb.stage2_mmu.stage2_tlb.walker.walkRequestOrigin_Completed::Data            0                       # Table walker requests started/completed, data/inst
system.cpu.dtb.stage2_mmu.stage2_tlb.walker.walkRequestOrigin_Completed::Inst            0                       # Table walker requests started/completed, data/inst
system.cpu.dtb.stage2_mmu.stage2_tlb.walker.walkRequestOrigin_Completed::total            0                       # Table walker requests started/completed, data/inst
system.cpu.dtb.stage2_mmu.stage2_tlb.walker.walkRequestOrigin::total            0                       # Table walker requests started/completed, data/inst
system.cpu.dtb.stage2_mmu.stage2_tlb.walker.walks            0                       # Table walker walks requested
system.cpu.dtb.stage2_mmu.stage2_tlb.write_accesses            0                       # DTB write accesses
system.cpu.dtb.stage2_mmu.stage2_tlb.write_hits            0                       # DTB write hits
system.cpu.dtb.stage2_mmu.stage2_tlb.write_misses            0                       # DTB write misses
system.cpu.dtb.walker.walkRequestOrigin_Requested::Data            0                       # Table walker requests started/completed, data/inst
system.cpu.dtb.walker.walkRequestOrigin_Requested::Inst            0                       # Table walker requests started/completed, data/inst
system.cpu.dtb.walker.walkRequestOrigin_Requested::total            0                       # Table walker requests started/completed, data/inst
system.cpu.dtb.walker.walkRequestOrigin_Completed::Data            0                       # Table walker requests started/completed, data/inst
system.cpu.dtb.walker.walkRequestOrigin_Completed::Inst            0                       # Table walker requests started/completed, data/inst
system.cpu.dtb.walker.walkRequestOrigin_Completed::total            0                       # Table walker requests started/completed, data/inst
system.cpu.dtb.walker.walkRequestOrigin::total            0                       # Table walker requests started/completed, data/inst
system.cpu.dtb.walker.walks                         0                       # Table walker walks requested
system.cpu.dtb.write_accesses                       0                       # DTB write accesses
system.cpu.dtb.write_hits                           0                       # DTB write hits
system.cpu.dtb.write_misses                         0                       # DTB write misses
system.cpu.fetch2.amo_instructions                  0                       # Number of memory atomic instructions successfully decoded
system.cpu.fetch2.fp_instructions                   0                       # Number of floating point instructions successfully decoded
system.cpu.fetch2.int_instructions           49411500                       # Number of integer instructions successfully decoded
system.cpu.fetch2.load_instructions          36900854                       # Number of memory load instructions successfully decoded
system.cpu.fetch2.store_instructions         13094423                       # Number of memory store instructions successfully decoded
system.cpu.fetch2.vec_instructions                  0                       # Number of SIMD instructions successfully decoded
system.cpu.idleCycles                       232113738                       # Total number of cycles that the object has spent stopped
system.cpu.ipc                               0.286215                       # IPC: instructions per cycle
system.cpu.itb.accesses                             0                       # DTB accesses
system.cpu.itb.align_faults                         0                       # Number of TLB faults due to alignment restrictions
system.cpu.itb.domain_faults                        0                       # Number of TLB faults due to domain restrictions
system.cpu.itb.flush_entries                        0                       # Number of entries that have been flushed from TLB
system.cpu.itb.flush_tlb                            0                       # Number of times complete TLB was flushed
system.cpu.itb.flush_tlb_asid                       0                       # Number of times TLB was flushed by ASID
system.cpu.itb.flush_tlb_mva                        0                       # Number of times TLB was flushed by MVA
system.cpu.itb.flush_tlb_mva_asid                   0                       # Number of times TLB was flushed by MVA & ASID
system.cpu.itb.hits                                 0                       # DTB hits
system.cpu.itb.inst_accesses                        0                       # ITB inst accesses
system.cpu.itb.inst_hits                            0                       # ITB inst hits
system.cpu.itb.inst_misses                          0                       # ITB inst misses
system.cpu.itb.misses                               0                       # DTB misses
system.cpu.itb.perms_faults                         0                       # Number of TLB faults due to permissions restrictions
system.cpu.itb.prefetch_faults                      0                       # Number of TLB faults due to prefetch
system.cpu.itb.read_accesses                        0                       # DTB read accesses
system.cpu.itb.read_hits                            0                       # DTB read hits
system.cpu.itb.read_misses                          0                       # DTB read misses
system.cpu.itb.stage2_mmu.stage2_tlb.accesses            0                       # DTB accesses
system.cpu.itb.stage2_mmu.stage2_tlb.align_faults            0                       # Number of TLB faults due to alignment restrictions
system.cpu.itb.stage2_mmu.stage2_tlb.domain_faults            0                       # Number of TLB faults due to domain restrictions
system.cpu.itb.stage2_mmu.stage2_tlb.flush_entries            0                       # Number of entries that have been flushed from TLB
system.cpu.itb.stage2_mmu.stage2_tlb.flush_tlb            0                       # Number of times complete TLB was flushed
system.cpu.itb.stage2_mmu.stage2_tlb.flush_tlb_asid            0                       # Number of times TLB was flushed by ASID
system.cpu.itb.stage2_mmu.stage2_tlb.flush_tlb_mva            0                       # Number of times TLB was flushed by MVA
system.cpu.itb.stage2_mmu.stage2_tlb.flush_tlb_mva_asid            0                       # Number of times TLB was flushed by MVA & ASID
system.cpu.itb.stage2_mmu.stage2_tlb.hits            0                       # DTB hits
system.cpu.itb.stage2_mmu.stage2_tlb.inst_accesses            0                       # ITB inst accesses
system.cpu.itb.stage2_mmu.stage2_tlb.inst_hits            0                       # ITB inst hits
system.cpu.itb.stage2_mmu.stage2_tlb.inst_misses            0                       # ITB inst misses
system.cpu.itb.stage2_mmu.stage2_tlb.misses            0                       # DTB misses
system.cpu.itb.stage2_mmu.stage2_tlb.perms_faults            0                       # Number of TLB faults due to permissions restrictions
system.cpu.itb.stage2_mmu.stage2_tlb.prefetch_faults            0                       # Number of TLB faults due to prefetch
system.cpu.itb.stage2_mmu.stage2_tlb.read_accesses            0                       # DTB read accesses
system.cpu.itb.stage2_mmu.stage2_tlb.read_hits            0                       # DTB read hits
system.cpu.itb.stage2_mmu.stage2_tlb.read_misses            0                       # DTB read misses
system.cpu.itb.stage2_mmu.stage2_tlb.walker.walkRequestOrigin_Requested::Data            0                       # Table walker requests started/completed, data/inst
system.cpu.itb.stage2_mmu.stage2_tlb.walker.walkRequestOrigin_Requested::Inst            0                       # Table walker requests started/completed, data/inst
system.cpu.itb.stage2_mmu.stage2_tlb.walker.walkRequestOrigin_Requested::total            0                       # Table walker requests started/completed, data/inst
system.cpu.itb.stage2_mmu.stage2_tlb.walker.walkRequestOrigin_Completed::Data            0                       # Table walker requests started/completed, data/inst
system.cpu.itb.stage2_mmu.stage2_tlb.walker.walkRequestOrigin_Completed::Inst            0                       # Table walker requests started/completed, data/inst
system.cpu.itb.stage2_mmu.stage2_tlb.walker.walkRequestOrigin_Completed::total            0                       # Table walker requests started/completed, data/inst
system.cpu.itb.stage2_mmu.stage2_tlb.walker.walkRequestOrigin::total            0                       # Table walker requests started/completed, data/inst
system.cpu.itb.stage2_mmu.stage2_tlb.walker.walks            0                       # Table walker walks requested
system.cpu.itb.stage2_mmu.stage2_tlb.write_accesses            0                       # DTB write accesses
system.cpu.itb.stage2_mmu.stage2_tlb.write_hits            0                       # DTB write hits
system.cpu.itb.stage2_mmu.stage2_tlb.write_misses            0                       # DTB write misses
system.cpu.itb.walker.walkRequestOrigin_Requested::Data            0                       # Table walker requests started/completed, data/inst
system.cpu.itb.walker.walkRequestOrigin_Requested::Inst            0                       # Table walker requests started/completed, data/inst
system.cpu.itb.walker.walkRequestOrigin_Requested::total            0                       # Table walker requests started/completed, data/inst
system.cpu.itb.walker.walkRequestOrigin_Completed::Data            0                       # Table walker requests started/completed, data/inst
system.cpu.itb.walker.walkRequestOrigin_Completed::Inst            0                       # Table walker requests started/completed, data/inst
system.cpu.itb.walker.walkRequestOrigin_Completed::total            0                       # Table walker requests started/completed, data/inst
system.cpu.itb.walker.walkRequestOrigin::total            0                       # Table walker requests started/completed, data/inst
system.cpu.itb.walker.walks                         0                       # Table walker walks requested
system.cpu.itb.write_accesses                       0                       # DTB write accesses
system.cpu.itb.write_hits                           0                       # DTB write hits
system.cpu.itb.write_misses                         0                       # DTB write misses
system.cpu.numCycles                        349387549                       # number of cpu cycles simulated
system.cpu.numFetchSuspends                         0                       # Number of times Execute suspended instruction fetching
system.cpu.numWorkItemsCompleted                    0                       # number of work items this cpu completed
system.cpu.numWorkItemsStarted                      0                       # number of work items this cpu started
system.cpu.op_class_0::No_OpClass                   0      0.00%      0.00% # Class of committed instruction
system.cpu.op_class_0::IntAlu                50007137     50.01%     50.01% # Class of committed instruction
system.cpu.op_class_0::IntMult                     85      0.00%     50.01% # Class of committed instruction
system.cpu.op_class_0::IntDiv                       0      0.00%     50.01% # Class of committed instruction
system.cpu.op_class_0::FloatAdd                     0      0.00%     50.01% # Class of committed instruction
system.cpu.op_class_0::FloatCmp                     0      0.00%     50.01% # Class of committed instruction
system.cpu.op_class_0::FloatCvt                     0      0.00%     50.01% # Class of committed instruction
system.cpu.op_class_0::FloatMult                    0      0.00%     50.01% # Class of committed instruction
system.cpu.op_class_0::FloatMultAcc                 0      0.00%     50.01% # Class of committed instruction
system.cpu.op_class_0::FloatDiv                     0      0.00%     50.01% # Class of committed instruction
system.cpu.op_class_0::FloatMisc                    0      0.00%     50.01% # Class of committed instruction
system.cpu.op_class_0::FloatSqrt                    0      0.00%     50.01% # Class of committed instruction
system.cpu.op_class_0::SimdAdd                      0      0.00%     50.01% # Class of committed instruction
system.cpu.op_class_0::SimdAddAcc                   0      0.00%     50.01% # Class of committed instruction
system.cpu.op_class_0::SimdAlu                      0      0.00%     50.01% # Class of committed instruction
system.cpu.op_class_0::SimdCmp                      0      0.00%     50.01% # Class of committed instruction
system.cpu.op_class_0::SimdCvt                      0      0.00%     50.01% # Class of committed instruction
system.cpu.op_class_0::SimdMisc                     0      0.00%     50.01% # Class of committed instruction
system.cpu.op_class_0::SimdMult                     0      0.00%     50.01% # Class of committed instruction
system.cpu.op_class_0::SimdMultAcc                  0      0.00%     50.01% # Class of committed instruction
system.cpu.op_class_0::SimdShift                    0      0.00%     50.01% # Class of committed instruction
system.cpu.op_class_0::SimdShiftAcc                 0      0.00%     50.01% # Class of committed instruction
system.cpu.op_class_0::SimdDiv                      0      0.00%     50.01% # Class of committed instruction
system.cpu.op_class_0::SimdSqrt                     0      0.00%     50.01% # Class of committed instruction
system.cpu.op_class_0::SimdFloatAdd                 0      0.00%     50.01% # Class of committed instruction
system.cpu.op_class_0::SimdFloatAlu                 0      0.00%     50.01% # Class of committed instruction
system.cpu.op_class_0::SimdFloatCmp                 2      0.00%     50.01% # Class of committed instruction
system.cpu.op_class_0::SimdFloatCvt                 0      0.00%     50.01% # Class of committed instruction
system.cpu.op_class_0::SimdFloatDiv                 0      0.00%     50.01% # Class of committed instruction
system.cpu.op_class_0::SimdFloatMisc               22      0.00%     50.01% # Class of committed instruction
system.cpu.op_class_0::SimdFloatMult                0      0.00%     50.01% # Class of committed instruction
system.cpu.op_class_0::SimdFloatMultAcc             0      0.00%     50.01% # Class of committed instruction
system.cpu.op_class_0::SimdFloatSqrt                0      0.00%     50.01% # Class of committed instruction
system.cpu.op_class_0::SimdReduceAdd                0      0.00%     50.01% # Class of committed instruction
system.cpu.op_class_0::SimdReduceAlu                0      0.00%     50.01% # Class of committed instruction
system.cpu.op_class_0::SimdReduceCmp                0      0.00%     50.01% # Class of committed instruction
system.cpu.op_class_0::SimdFloatReduceAdd            0      0.00%     50.01% # Class of committed instruction
system.cpu.op_class_0::SimdFloatReduceCmp            0      0.00%     50.01% # Class of committed instruction
system.cpu.op_class_0::SimdAes                      0      0.00%     50.01% # Class of committed instruction
system.cpu.op_class_0::SimdAesMix                   0      0.00%     50.01% # Class of committed instruction
system.cpu.op_class_0::SimdSha1Hash                 0      0.00%     50.01% # Class of committed instruction
system.cpu.op_class_0::SimdSha1Hash2                0      0.00%     50.01% # Class of committed instruction
system.cpu.op_class_0::SimdSha256Hash               0      0.00%     50.01% # Class of committed instruction
system.cpu.op_class_0::SimdSha256Hash2              0      0.00%     50.01% # Class of committed instruction
system.cpu.op_class_0::SimdShaSigma2                0      0.00%     50.01% # Class of committed instruction
system.cpu.op_class_0::SimdShaSigma3                0      0.00%     50.01% # Class of committed instruction
system.cpu.op_class_0::SimdPredAlu                  0      0.00%     50.01% # Class of committed instruction
system.cpu.op_class_0::MemRead               36900809     36.90%     86.90% # Class of committed instruction
system.cpu.op_class_0::MemWrite              13095651     13.10%    100.00% # Class of committed instruction
system.cpu.op_class_0::FloatMemRead                 0      0.00%    100.00% # Class of committed instruction
system.cpu.op_class_0::FloatMemWrite                0      0.00%    100.00% # Class of committed instruction
system.cpu.op_class_0::IprAccess                    0      0.00%    100.00% # Class of committed instruction
system.cpu.op_class_0::InstPrefetch                 0      0.00%    100.00% # Class of committed instruction
system.cpu.op_class_0::total                100003706                       # Class of committed instruction
system.cpu.tickCycles                       117273811                       # Number of cycles that the object actually ticked
system.cpu.workload.numSyscalls                    18                       # Number of system calls
system.membus.snoop_filter.hit_multi_requests            0                       # Number of requests hitting in the snoop filter with multiple (>1) holders of the requested data.
system.membus.snoop_filter.hit_multi_snoops            0                       # Number of snoops hitting in the snoop filter with multiple (>1) holders of the requested data.
system.membus.snoop_filter.hit_single_requests      1455550                       # Number of requests hitting in the snoop filter with a single holder of the requested data.
system.membus.snoop_filter.hit_single_snoops            0                       # Number of snoops hitting in the snoop filter with a single holder of the requested data.
system.membus.snoop_filter.tot_requests       2943997                       # Total number of requests made to the snoop filter.
system.membus.snoop_filter.tot_snoops               0                       # Total number of snoops made to the snoop filter.
system.tol2bus.snoop_filter.hit_multi_requests           48                       # Number of requests hitting in the snoop filter with multiple (>1) holders of the requested data.
system.tol2bus.snoop_filter.hit_multi_snoops            1                       # Number of snoops hitting in the snoop filter with multiple (>1) holders of the requested data.
system.tol2bus.snoop_filter.hit_single_requests      1487745                       # Number of requests hitting in the snoop filter with a single holder of the requested data.
system.tol2bus.snoop_filter.hit_single_snoops          128                       # Number of snoops hitting in the snoop filter with a single holder of the requested data.
system.tol2bus.snoop_filter.tot_requests      2976640                       # Total number of requests made to the snoop filter.
system.tol2bus.snoop_filter.tot_snoops            129                       # Total number of snoops made to the snoop filter.
system.membus.pwrStateResidencyTicks::UNDEFINED 174693774500                       # Cumulative time (in ticks) in various power states
system.membus.trans_dist::ReadResp                602                       # Transaction distribution
system.membus.trans_dist::WritebackDirty      1455094                       # Transaction distribution
system.membus.trans_dist::CleanEvict              456                       # Transaction distribution
system.membus.trans_dist::ReadExReq           1487845                       # Transaction distribution
system.membus.trans_dist::ReadExResp          1487845                       # Transaction distribution
system.membus.trans_dist::ReadSharedReq           602                       # Transaction distribution
system.membus.pkt_count_system.l2.mem_side::system.mem_ctrls.port      4432444                       # Packet count per connected master and slave (bytes)
system.membus.pkt_count::total                4432444                       # Packet count per connected master and slave (bytes)
system.membus.pkt_size_system.l2.mem_side::system.mem_ctrls.port    188386624                       # Cumulative packet size per connected master and slave (bytes)
system.membus.pkt_size::total               188386624                       # Cumulative packet size per connected master and slave (bytes)
system.membus.snoops                                0                       # Total snoops (count)
system.membus.snoopTraffic                          0                       # Total snoop traffic (bytes)
system.membus.snoop_fanout::samples           1488447                       # Request fanout histogram
system.membus.snoop_fanout::mean                    0                       # Request fanout histogram
system.membus.snoop_fanout::stdev                   0                       # Request fanout histogram
system.membus.snoop_fanout::underflows              0      0.00%      0.00% # Request fanout histogram
system.membus.snoop_fanout::0                 1488447    100.00%    100.00% # Request fanout histogram
system.membus.snoop_fanout::1                       0      0.00%    100.00% # Request fanout histogram
system.membus.snoop_fanout::overflows               0      0.00%    100.00% # Request fanout histogram
system.membus.snoop_fanout::min_value               0                       # Request fanout histogram
system.membus.snoop_fanout::max_value               0                       # Request fanout histogram
system.membus.snoop_fanout::total             1488447                       # Request fanout histogram
system.membus.respLayer1.occupancy         7843374750                       # Layer occupancy (ticks)
system.membus.respLayer1.utilization              4.5                       # Layer utilization (%)
system.membus.reqLayer0.occupancy          9359579000                       # Layer occupancy (ticks)
system.membus.reqLayer0.utilization               5.4                       # Layer utilization (%)
system.tol2bus.pwrStateResidencyTicks::UNDEFINED 174693774500                       # Cumulative time (in ticks) in various power states
system.tol2bus.trans_dist::ReadResp              1051                       # Transaction distribution
system.tol2bus.trans_dist::WritebackDirty      2941934                       # Transaction distribution
system.tol2bus.trans_dist::WritebackClean          793                       # Transaction distribution
system.tol2bus.trans_dist::CleanEvict             696                       # Transaction distribution
system.tol2bus.trans_dist::ReadExReq          1487845                       # Transaction distribution
system.tol2bus.trans_dist::ReadExResp         1487845                       # Transaction distribution
system.tol2bus.trans_dist::ReadCleanReq           921                       # Transaction distribution
system.tol2bus.trans_dist::ReadSharedReq          130                       # Transaction distribution
system.tol2bus.pkt_count_system.cpu.icache.mem_side::system.l2.cpu_side         2635                       # Packet count per connected master and slave (bytes)
system.tol2bus.pkt_count_system.cpu.dcache.mem_side::system.l2.cpu_side      4462901                       # Packet count per connected master and slave (bytes)
system.tol2bus.pkt_count::total               4465536                       # Packet count per connected master and slave (bytes)
system.tol2bus.pkt_size_system.cpu.icache.mem_side::system.l2.cpu_side       109696                       # Cumulative packet size per connected master and slave (bytes)
system.tol2bus.pkt_size_system.cpu.dcache.mem_side::system.l2.cpu_side    190388160                       # Cumulative packet size per connected master and slave (bytes)
system.tol2bus.pkt_size::total              190497856                       # Cumulative packet size per connected master and slave (bytes)
system.tol2bus.snoops                         1455679                       # Total snoops (count)
system.tol2bus.snoopTraffic                  93126016                       # Total snoop traffic (bytes)
system.tol2bus.snoop_fanout::samples          2944575                       # Request fanout histogram
system.tol2bus.snoop_fanout::mean            0.000061                       # Request fanout histogram
system.tol2bus.snoop_fanout::stdev           0.007840                       # Request fanout histogram
system.tol2bus.snoop_fanout::underflows             0      0.00%      0.00% # Request fanout histogram
system.tol2bus.snoop_fanout::0                2944397     99.99%     99.99% # Request fanout histogram
system.tol2bus.snoop_fanout::1                    177      0.01%    100.00% # Request fanout histogram
system.tol2bus.snoop_fanout::2                      1      0.00%    100.00% # Request fanout histogram
system.tol2bus.snoop_fanout::overflows              0      0.00%    100.00% # Request fanout histogram
system.tol2bus.snoop_fanout::min_value              0                       # Request fanout histogram
system.tol2bus.snoop_fanout::max_value              2                       # Request fanout histogram
system.tol2bus.snoop_fanout::total            2944575                       # Request fanout histogram
system.tol2bus.reqLayer0.occupancy         2975953000                       # Layer occupancy (ticks)
system.tol2bus.reqLayer0.utilization              1.7                       # Layer utilization (%)
system.tol2bus.respLayer1.occupancy        2231963997                       # Layer occupancy (ticks)
system.tol2bus.respLayer1.utilization             1.3                       # Layer utilization (%)
system.tol2bus.respLayer0.occupancy           1381500                       # Layer occupancy (ticks)
system.tol2bus.respLayer0.utilization             0.0                       # Layer utilization (%)
system.voltage_domain.voltage                       1                       # Voltage in Volts
system.clk_domain.clock                          1000                       # Clock period in ticks
system.l2.pwrStateResidencyTicks::UNDEFINED 174693774500                       # Cumulative time (in ticks) in various power states
system.l2.demand_hits::.cpu.inst                  431                       # number of demand (read+write) hits
system.l2.demand_hits::.cpu.data                   15                       # number of demand (read+write) hits
system.l2.demand_hits::total                      446                       # number of demand (read+write) hits
system.l2.overall_hits::.cpu.inst                 431                       # number of overall hits
system.l2.overall_hits::.cpu.data                  15                       # number of overall hits
system.l2.overall_hits::total                     446                       # number of overall hits
system.l2.demand_misses::.cpu.inst                490                       # number of demand (read+write) misses
system.l2.demand_misses::.cpu.data            1487960                       # number of demand (read+write) misses
system.l2.demand_misses::total                1488450                       # number of demand (read+write) misses
system.l2.overall_misses::.cpu.inst               490                       # number of overall misses
system.l2.overall_misses::.cpu.data           1487960                       # number of overall misses
system.l2.overall_misses::total               1488450                       # number of overall misses
system.l2.demand_miss_latency::.cpu.inst     37157000                       # number of demand (read+write) miss cycles
system.l2.demand_miss_latency::.cpu.data 118853946500                       # number of demand (read+write) miss cycles
system.l2.demand_miss_latency::total     118891103500                       # number of demand (read+write) miss cycles
system.l2.overall_miss_latency::.cpu.inst     37157000                       # number of overall miss cycles
system.l2.overall_miss_latency::.cpu.data 118853946500                       # number of overall miss cycles
system.l2.overall_miss_latency::total    118891103500                       # number of overall miss cycles
system.l2.demand_accesses::.cpu.inst              921                       # number of demand (read+write) accesses
system.l2.demand_accesses::.cpu.data          1487975                       # number of demand (read+write) accesses
system.l2.demand_accesses::total              1488896                       # number of demand (read+write) accesses
system.l2.overall_accesses::.cpu.inst             921                       # number of overall (read+write) accesses
system.l2.overall_accesses::.cpu.data         1487975                       # number of overall (read+write) accesses
system.l2.overall_accesses::total             1488896                       # number of overall (read+write) accesses
system.l2.demand_miss_rate::.cpu.inst        0.532030                       # miss rate for demand accesses
system.l2.demand_miss_rate::.cpu.data        0.999990                       # miss rate for demand accesses
system.l2.demand_miss_rate::total            0.999700                       # miss rate for demand accesses
system.l2.overall_miss_rate::.cpu.inst       0.532030                       # miss rate for overall accesses
system.l2.overall_miss_rate::.cpu.data       0.999990                       # miss rate for overall accesses
system.l2.overall_miss_rate::total           0.999700                       # miss rate for overall accesses
system.l2.demand_avg_miss_latency::.cpu.inst 75830.612245                       # average overall miss latency
system.l2.demand_avg_miss_latency::.cpu.data 79877.111280                       # average overall miss latency
system.l2.demand_avg_miss_latency::total 79875.779166                       # average overall miss latency
system.l2.overall_avg_miss_latency::.cpu.inst 75830.612245                       # average overall miss latency
system.l2.overall_avg_miss_latency::.cpu.data 79877.111280                       # average overall miss latency
system.l2.overall_avg_miss_latency::total 79875.779166                       # average overall miss latency
system.l2.blocked_cycles::no_mshrs                  0                       # number of cycles access was blocked
system.l2.blocked_cycles::no_targets                0                       # number of cycles access was blocked
system.l2.blocked::no_mshrs                         0                       # number of cycles access was blocked
system.l2.blocked::no_targets                       0                       # number of cycles access was blocked
system.l2.avg_blocked_cycles::no_mshrs            nan                       # average number of cycles each access was blocked
system.l2.avg_blocked_cycles::no_targets          nan                       # average number of cycles each access was blocked
system.l2.writebacks::.writebacks             1455094                       # number of writebacks
system.l2.writebacks::total                   1455094                       # number of writebacks
system.l2.demand_mshr_hits::.cpu.data               3                       # number of demand (read+write) MSHR hits
system.l2.demand_mshr_hits::total                   3                       # number of demand (read+write) MSHR hits
system.l2.overall_mshr_hits::.cpu.data              3                       # number of overall MSHR hits
system.l2.overall_mshr_hits::total                  3                       # number of overall MSHR hits
system.l2.demand_mshr_misses::.cpu.inst           490                       # number of demand (read+write) MSHR misses
system.l2.demand_mshr_misses::.cpu.data       1487957                       # number of demand (read+write) MSHR misses
system.l2.demand_mshr_misses::total           1488447                       # number of demand (read+write) MSHR misses
system.l2.overall_mshr_misses::.cpu.inst          490                       # number of overall MSHR misses
system.l2.overall_mshr_misses::.cpu.data      1487957                       # number of overall MSHR misses
system.l2.overall_mshr_misses::total          1488447                       # number of overall MSHR misses
system.l2.demand_mshr_miss_latency::.cpu.inst     32257000                       # number of demand (read+write) MSHR miss cycles
system.l2.demand_mshr_miss_latency::.cpu.data 103974175000                       # number of demand (read+write) MSHR miss cycles
system.l2.demand_mshr_miss_latency::total 104006432000                       # number of demand (read+write) MSHR miss cycles
system.l2.overall_mshr_miss_latency::.cpu.inst     32257000                       # number of overall MSHR miss cycles
system.l2.overall_mshr_miss_latency::.cpu.data 103974175000                       # number of overall MSHR miss cycles
system.l2.overall_mshr_miss_latency::total 104006432000                       # number of overall MSHR miss cycles
system.l2.demand_mshr_miss_rate::.cpu.inst     0.532030                       # mshr miss rate for demand accesses
system.l2.demand_mshr_miss_rate::.cpu.data     0.999988                       # mshr miss rate for demand accesses
system.l2.demand_mshr_miss_rate::total       0.999698                       # mshr miss rate for demand accesses
system.l2.overall_mshr_miss_rate::.cpu.inst     0.532030                       # mshr miss rate for overall accesses
system.l2.overall_mshr_miss_rate::.cpu.data     0.999988                       # mshr miss rate for overall accesses
system.l2.overall_mshr_miss_rate::total      0.999698                       # mshr miss rate for overall accesses
system.l2.demand_avg_mshr_miss_latency::.cpu.inst 65830.612245                       # average overall mshr miss latency
system.l2.demand_avg_mshr_miss_latency::.cpu.data 69877.136907                       # average overall mshr miss latency
system.l2.demand_avg_mshr_miss_latency::total 69875.804782                       # average overall mshr miss latency
system.l2.overall_avg_mshr_miss_latency::.cpu.inst 65830.612245                       # average overall mshr miss latency
system.l2.overall_avg_mshr_miss_latency::.cpu.data 69877.136907                       # average overall mshr miss latency
system.l2.overall_avg_mshr_miss_latency::total 69875.804782                       # average overall mshr miss latency
system.l2.replacements                        1455679                       # number of replacements
system.l2.WritebackDirty_hits::.writebacks      1486840                       # number of WritebackDirty hits
system.l2.WritebackDirty_hits::total          1486840                       # number of WritebackDirty hits
system.l2.WritebackDirty_accesses::.writebacks      1486840                       # number of WritebackDirty accesses(hits+misses)
system.l2.WritebackDirty_accesses::total      1486840                       # number of WritebackDirty accesses(hits+misses)
system.l2.WritebackClean_hits::.writebacks          751                       # number of WritebackClean hits
system.l2.WritebackClean_hits::total              751                       # number of WritebackClean hits
system.l2.WritebackClean_accesses::.writebacks          751                       # number of WritebackClean accesses(hits+misses)
system.l2.WritebackClean_accesses::total          751                       # number of WritebackClean accesses(hits+misses)
system.l2.ReadExReq_misses::.cpu.data         1487845                       # number of ReadExReq misses
system.l2.ReadExReq_misses::total             1487845                       # number of ReadExReq misses
system.l2.ReadExReq_miss_latency::.cpu.data 118844116000                       # number of ReadExReq miss cycles
system.l2.ReadExReq_miss_latency::total  118844116000                       # number of ReadExReq miss cycles
system.l2.ReadExReq_accesses::.cpu.data       1487845                       # number of ReadExReq accesses(hits+misses)
system.l2.ReadExReq_accesses::total           1487845                       # number of ReadExReq accesses(hits+misses)
system.l2.ReadExReq_miss_rate::.cpu.data            1                       # miss rate for ReadExReq accesses
system.l2.ReadExReq_miss_rate::total                1                       # miss rate for ReadExReq accesses
system.l2.ReadExReq_avg_miss_latency::.cpu.data 79876.678014                       # average ReadExReq miss latency
system.l2.ReadExReq_avg_miss_latency::total 79876.678014                       # average ReadExReq miss latency
system.l2.ReadExReq_mshr_misses::.cpu.data      1487845                       # number of ReadExReq MSHR misses
system.l2.ReadExReq_mshr_misses::total        1487845                       # number of ReadExReq MSHR misses
system.l2.ReadExReq_mshr_miss_latency::.cpu.data 103965666000                       # number of ReadExReq MSHR miss cycles
system.l2.ReadExReq_mshr_miss_latency::total 103965666000                       # number of ReadExReq MSHR miss cycles
system.l2.ReadExReq_mshr_miss_rate::.cpu.data            1                       # mshr miss rate for ReadExReq accesses
system.l2.ReadExReq_mshr_miss_rate::total            1                       # mshr miss rate for ReadExReq accesses
system.l2.ReadExReq_avg_mshr_miss_latency::.cpu.data 69876.678014                       # average ReadExReq mshr miss latency
system.l2.ReadExReq_avg_mshr_miss_latency::total 69876.678014                       # average ReadExReq mshr miss latency
system.l2.ReadCleanReq_hits::.cpu.inst            431                       # number of ReadCleanReq hits
system.l2.ReadCleanReq_hits::total                431                       # number of ReadCleanReq hits
system.l2.ReadCleanReq_misses::.cpu.inst          490                       # number of ReadCleanReq misses
system.l2.ReadCleanReq_misses::total              490                       # number of ReadCleanReq misses
system.l2.ReadCleanReq_miss_latency::.cpu.inst     37157000                       # number of ReadCleanReq miss cycles
system.l2.ReadCleanReq_miss_latency::total     37157000                       # number of ReadCleanReq miss cycles
system.l2.ReadCleanReq_accesses::.cpu.inst          921                       # number of ReadCleanReq accesses(hits+misses)
system.l2.ReadCleanReq_accesses::total            921                       # number of ReadCleanReq accesses(hits+misses)
system.l2.ReadCleanReq_miss_rate::.cpu.inst     0.532030                       # miss rate for ReadCleanReq accesses
system.l2.ReadCleanReq_miss_rate::total      0.532030                       # miss rate for ReadCleanReq accesses
system.l2.ReadCleanReq_avg_miss_latency::.cpu.inst 75830.612245                       # average ReadCleanReq miss latency
system.l2.ReadCleanReq_avg_miss_latency::total 75830.612245                       # average ReadCleanReq miss latency
system.l2.ReadCleanReq_mshr_misses::.cpu.inst          490                       # number of ReadCleanReq MSHR misses
system.l2.ReadCleanReq_mshr_misses::total          490                       # number of ReadCleanReq MSHR misses
system.l2.ReadCleanReq_mshr_miss_latency::.cpu.inst     32257000                       # number of ReadCleanReq MSHR miss cycles
system.l2.ReadCleanReq_mshr_miss_latency::total     32257000                       # number of ReadCleanReq MSHR miss cycles
system.l2.ReadCleanReq_mshr_miss_rate::.cpu.inst     0.532030                       # mshr miss rate for ReadCleanReq accesses
system.l2.ReadCleanReq_mshr_miss_rate::total     0.532030                       # mshr miss rate for ReadCleanReq accesses
system.l2.ReadCleanReq_avg_mshr_miss_latency::.cpu.inst 65830.612245                       # average ReadCleanReq mshr miss latency
system.l2.ReadCleanReq_avg_mshr_miss_latency::total 65830.612245                       # average ReadCleanReq mshr miss latency
system.l2.ReadSharedReq_hits::.cpu.data            15                       # number of ReadSharedReq hits
system.l2.ReadSharedReq_hits::total                15                       # number of ReadSharedReq hits
system.l2.ReadSharedReq_misses::.cpu.data          115                       # number of ReadSharedReq misses
system.l2.ReadSharedReq_misses::total             115                       # number of ReadSharedReq misses
system.l2.ReadSharedReq_miss_latency::.cpu.data      9830500                       # number of ReadSharedReq miss cycles
system.l2.ReadSharedReq_miss_latency::total      9830500                       # number of ReadSharedReq miss cycles
system.l2.ReadSharedReq_accesses::.cpu.data          130                       # number of ReadSharedReq accesses(hits+misses)
system.l2.ReadSharedReq_accesses::total           130                       # number of ReadSharedReq accesses(hits+misses)
system.l2.ReadSharedReq_miss_rate::.cpu.data     0.884615                       # miss rate for ReadSharedReq accesses
system.l2.ReadSharedReq_miss_rate::total     0.884615                       # miss rate for ReadSharedReq accesses
system.l2.ReadSharedReq_avg_miss_latency::.cpu.data 85482.608696                       # average ReadSharedReq miss latency
system.l2.ReadSharedReq_avg_miss_latency::total 85482.608696                       # average ReadSharedReq miss latency
system.l2.ReadSharedReq_mshr_hits::.cpu.data            3                       # number of ReadSharedReq MSHR hits
system.l2.ReadSharedReq_mshr_hits::total            3                       # number of ReadSharedReq MSHR hits
system.l2.ReadSharedReq_mshr_misses::.cpu.data          112                       # number of ReadSharedReq MSHR misses
system.l2.ReadSharedReq_mshr_misses::total          112                       # number of ReadSharedReq MSHR misses
system.l2.ReadSharedReq_mshr_miss_latency::.cpu.data      8509000                       # number of ReadSharedReq MSHR miss cycles
system.l2.ReadSharedReq_mshr_miss_latency::total      8509000                       # number of ReadSharedReq MSHR miss cycles
system.l2.ReadSharedReq_mshr_miss_rate::.cpu.data     0.861538                       # mshr miss rate for ReadSharedReq accesses
system.l2.ReadSharedReq_mshr_miss_rate::total     0.861538                       # mshr miss rate for ReadSharedReq accesses
system.l2.ReadSharedReq_avg_mshr_miss_latency::.cpu.data 75973.214286                       # average ReadSharedReq mshr miss latency
system.l2.ReadSharedReq_avg_mshr_miss_latency::total 75973.214286                       # average ReadSharedReq mshr miss latency
system.l2.tags.pwrStateResidencyTicks::UNDEFINED 174693774500                       # Cumulative time (in ticks) in various power states
system.l2.tags.tagsinuse                 32427.357277                       # Cycle average of tags in use
system.l2.tags.total_refs                     2976589                       # Total number of references to valid blocks.
system.l2.tags.sampled_refs                   1488447                       # Sample count of references to valid blocks.
system.l2.tags.avg_refs                      1.999795                       # Average number of references to valid blocks.
system.l2.tags.warmup_cycle                     77000                       # Cycle when the warmup percentage was hit.
system.l2.tags.occ_blocks::.cpu.inst         9.595070                       # Average occupied blocks per requestor
system.l2.tags.occ_blocks::.cpu.data     32417.762206                       # Average occupied blocks per requestor
system.l2.tags.occ_percent::.cpu.inst        0.000293                       # Average percentage of cache occupancy
system.l2.tags.occ_percent::.cpu.data        0.989312                       # Average percentage of cache occupancy
system.l2.tags.occ_percent::total            0.989604                       # Average percentage of cache occupancy
system.l2.tags.occ_task_id_blocks::1024         32768                       # Occupied blocks per task id
system.l2.tags.age_task_id_blocks_1024::0           85                       # Occupied blocks per task id
system.l2.tags.age_task_id_blocks_1024::1          766                       # Occupied blocks per task id
system.l2.tags.age_task_id_blocks_1024::2         7670                       # Occupied blocks per task id
system.l2.tags.age_task_id_blocks_1024::3        24247                       # Occupied blocks per task id
system.l2.tags.occ_task_id_percent::1024            1                       # Percentage of cache occupancy per task id
system.l2.tags.tag_accesses                  25301183                       # Number of tag accesses
system.l2.tags.data_accesses                 25301183                       # Number of data accesses
system.cpu_voltage_domain.voltage                   1                       # Voltage in Volts
system.mem_ctrls.pwrStateResidencyTicks::UNDEFINED 174693774500                       # Cumulative time (in ticks) in various power states
system.mem_ctrls.bytes_read::.cpu.inst          31360                       # Number of bytes read from this memory
system.mem_ctrls.bytes_read::.cpu.data       95229248                       # Number of bytes read from this memory
system.mem_ctrls.bytes_read::total           95260608                       # Number of bytes read from this memory
system.mem_ctrls.bytes_inst_read::.cpu.inst        31360                       # Number of instructions bytes read from this memory
system.mem_ctrls.bytes_inst_read::total         31360                       # Number of instructions bytes read from this memory
system.mem_ctrls.bytes_written::.writebacks     93126016                       # Number of bytes written to this memory
system.mem_ctrls.bytes_written::total        93126016                       # Number of bytes written to this memory
system.mem_ctrls.num_reads::.cpu.inst             490                       # Number of read requests responded to by this memory
system.mem_ctrls.num_reads::.cpu.data         1487957                       # Number of read requests responded to by this memory
system.mem_ctrls.num_reads::total             1488447                       # Number of read requests responded to by this memory
system.mem_ctrls.num_writes::.writebacks      1455094                       # Number of write requests responded to by this memory
system.mem_ctrls.num_writes::total            1455094                       # Number of write requests responded to by this memory
system.mem_ctrls.bw_read::.cpu.inst            179514                       # Total read bandwidth from this memory (bytes/s)
system.mem_ctrls.bw_read::.cpu.data         545121017                       # Total read bandwidth from this memory (bytes/s)
system.mem_ctrls.bw_read::total             545300531                       # Total read bandwidth from this memory (bytes/s)
system.mem_ctrls.bw_inst_read::.cpu.inst       179514                       # Instruction read bandwidth from this memory (bytes/s)
system.mem_ctrls.bw_inst_read::total           179514                       # Instruction read bandwidth from this memory (bytes/s)
system.mem_ctrls.bw_write::.writebacks      533081481                       # Write bandwidth from this memory (bytes/s)
system.mem_ctrls.bw_write::total            533081481                       # Write bandwidth from this memory (bytes/s)
system.mem_ctrls.bw_total::.writebacks      533081481                       # Total bandwidth to/from this memory (bytes/s)
system.mem_ctrls.bw_total::.cpu.inst           179514                       # Total bandwidth to/from this memory (bytes/s)
system.mem_ctrls.bw_total::.cpu.data        545121017                       # Total bandwidth to/from this memory (bytes/s)
system.mem_ctrls.bw_total::total           1078382012                       # Total bandwidth to/from this memory (bytes/s)
system.mem_ctrls.avgPriority_.writebacks::samples   1455094.00                       # Average QoS priority value for accepted requests
system.mem_ctrls.avgPriority_.cpu.inst::samples       490.00                       # Average QoS priority value for accepted requests
system.mem_ctrls.avgPriority_.cpu.data::samples   1487957.00                       # Average QoS priority value for accepted requests
system.mem_ctrls.priorityMinLatency      0.000000018750                       # per QoS priority minimum request to response latency (s)
system.mem_ctrls.priorityMaxLatency      0.000908227250                       # per QoS priority maximum request to response latency (s)
system.mem_ctrls.numReadWriteTurnArounds        90510                       # Number of turnarounds from READ to WRITE
system.mem_ctrls.numWriteReadTurnArounds        90510                       # Number of turnarounds from WRITE to READ
system.mem_ctrls.numStayReadState             4382833                       # Number of times bus staying in READ state
system.mem_ctrls.numStayWriteState            1366843                       # Number of times bus staying in WRITE state
system.mem_ctrls.readReqs                     1488447                       # Number of read requests accepted
system.mem_ctrls.writeReqs                    1455094                       # Number of write requests accepted
system.mem_ctrls.readBursts                   1488447                       # Number of DRAM read bursts, including those serviced by the write queue
system.mem_ctrls.writeBursts                  1455094                       # Number of DRAM write bursts, including those merged in the write queue
system.mem_ctrls.servicedByWrQ                      0                       # Number of DRAM read bursts serviced by the write queue
system.mem_ctrls.mergedWrBursts                     0                       # Number of DRAM write bursts merged with an existing one
system.mem_ctrls.neitherReadNorWriteReqs            0                       # Number of requests that are neither read nor write
system.mem_ctrls.perBankRdBursts::0             93064                       # Per bank write bursts
system.mem_ctrls.perBankRdBursts::1             92958                       # Per bank write bursts
system.mem_ctrls.perBankRdBursts::2             92993                       # Per bank write bursts
system.mem_ctrls.perBankRdBursts::3             93001                       # Per bank write bursts
system.mem_ctrls.perBankRdBursts::4             93101                       # Per bank write bursts
system.mem_ctrls.perBankRdBursts::5             93074                       # Per bank write bursts
system.mem_ctrls.perBankRdBursts::6             93061                       # Per bank write bursts
system.mem_ctrls.perBankRdBursts::7             93078                       # Per bank write bursts
system.mem_ctrls.perBankRdBursts::8             93156                       # Per bank write bursts
system.mem_ctrls.perBankRdBursts::9             93072                       # Per bank write bursts
system.mem_ctrls.perBankRdBursts::10            93045                       # Per bank write bursts
system.mem_ctrls.perBankRdBursts::11            92953                       # Per bank write bursts
system.mem_ctrls.perBankRdBursts::12            92999                       # Per bank write bursts
system.mem_ctrls.perBankRdBursts::13            92951                       # Per bank write bursts
system.mem_ctrls.perBankRdBursts::14            92954                       # Per bank write bursts
system.mem_ctrls.perBankRdBursts::15            92987                       # Per bank write bursts
system.mem_ctrls.perBankWrBursts::0             90924                       # Per bank write bursts
system.mem_ctrls.perBankWrBursts::1             90902                       # Per bank write bursts
system.mem_ctrls.perBankWrBursts::2             90895                       # Per bank write bursts
system.mem_ctrls.perBankWrBursts::3             90950                       # Per bank write bursts
system.mem_ctrls.perBankWrBursts::4             91009                       # Per bank write bursts
system.mem_ctrls.perBankWrBursts::5             91008                       # Per bank write bursts
system.mem_ctrls.perBankWrBursts::6             91008                       # Per bank write bursts
system.mem_ctrls.perBankWrBursts::7             91008                       # Per bank write bursts
system.mem_ctrls.perBankWrBursts::8             91008                       # Per bank write bursts
system.mem_ctrls.perBankWrBursts::9             91008                       # Per bank write bursts
system.mem_ctrls.perBankWrBursts::10            90945                       # Per bank write bursts
system.mem_ctrls.perBankWrBursts::11            90880                       # Per bank write bursts
system.mem_ctrls.perBankWrBursts::12            90880                       # Per bank write bursts
system.mem_ctrls.perBankWrBursts::13            90880                       # Per bank write bursts
system.mem_ctrls.perBankWrBursts::14            90880                       # Per bank write bursts
system.mem_ctrls.perBankWrBursts::15            90884                       # Per bank write bursts
system.mem_ctrls.avgRdQLen                       1.00                       # Average read queue length when enqueuing
system.mem_ctrls.avgWrQLen                      25.37                       # Average write queue length when enqueuing
system.mem_ctrls.totQLat                  14819577250                       # Total ticks spent queuing
system.mem_ctrls.totBusLat                 7442235000                       # Total ticks spent in databus transfers
system.mem_ctrls.totMemAccLat             42727958500                       # Total ticks spent from burst creation until serviced by the DRAM
system.mem_ctrls.avgQLat                      9956.40                       # Average queueing delay per DRAM burst
system.mem_ctrls.avgBusLat                    5000.00                       # Average bus latency per DRAM burst
system.mem_ctrls.avgMemAccLat                28706.40                       # Average memory access latency per DRAM burst
system.mem_ctrls.numRdRetry                         0                       # Number of times read queue was full causing retry
system.mem_ctrls.numWrRetry                         0                       # Number of times write queue was full causing retry
system.mem_ctrls.readRowHits                  1364804                       # Number of row buffer hits during reads
system.mem_ctrls.writeRowHits                 1350376                       # Number of row buffer hits during writes
system.mem_ctrls.readRowHitRate                 91.69                       # Row buffer hit rate for reads
system.mem_ctrls.writeRowHitRate                92.80                       # Row buffer hit rate for writes
system.mem_ctrls.readPktSize::0                     0                       # Read request sizes (log2)
system.mem_ctrls.readPktSize::1                     0                       # Read request sizes (log2)
system.mem_ctrls.readPktSize::2                     0                       # Read request sizes (log2)
system.mem_ctrls.readPktSize::3                     0                       # Read request sizes (log2)
system.mem_ctrls.readPktSize::4                     0                       # Read request sizes (log2)
system.mem_ctrls.readPktSize::5                     0                       # Read request sizes (log2)
system.mem_ctrls.readPktSize::6               1488447                       # Read request sizes (log2)
system.mem_ctrls.writePktSize::0                    0                       # Write request sizes (log2)
system.mem_ctrls.writePktSize::1                    0                       # Write request sizes (log2)
system.mem_ctrls.writePktSize::2                    0                       # Write request sizes (log2)
system.mem_ctrls.writePktSize::3                    0                       # Write request sizes (log2)
system.mem_ctrls.writePktSize::4                    0                       # Write request sizes (log2)
system.mem_ctrls.writePktSize::5                    0                       # Write request sizes (log2)
system.mem_ctrls.writePktSize::6              1455094                       # Write request sizes (log2)
system.mem_ctrls.rdQLenPdf::0                 1488349                       # What read queue length does an incoming req see
system.mem_ctrls.rdQLenPdf::1                      90                       # What read queue length does an incoming req see
system.mem_ctrls.rdQLenPdf::2                       7                       # What read queue length does an incoming req see
system.mem_ctrls.rdQLenPdf::3                       1                       # What read queue length does an incoming req see
system.mem_ctrls.rdQLenPdf::4                       0                       # What read queue length does an incoming req see
system.mem_ctrls.rdQLenPdf::5                       0                       # What read queue length does an incoming req see
system.mem_ctrls.rdQLenPdf::6                       0                       # What read queue length does an incoming req see
system.mem_ctrls.rdQLenPdf::7                       0                       # What read queue length does an incoming req see
system.mem_ctrls.rdQLenPdf::8                       0                       # What read queue length does an incoming req see
system.mem_ctrls.rdQLenPdf::9                       0                       # What read queue length does an incoming req see
system.mem_ctrls.rdQLenPdf::10                      0                       # What read queue length does an incoming req see
system.mem_ctrls.rdQLenPdf::11                      0                       # What read queue length does an incoming req see
system.mem_ctrls.rdQLenPdf::12                      0                       # What read queue length does an incoming req see
system.mem_ctrls.rdQLenPdf::13                      0                       # What read queue length does an incoming req see
system.mem_ctrls.rdQLenPdf::14                      0                       # What read queue length does an incoming req see
system.mem_ctrls.rdQLenPdf::15                      0                       # What read queue length does an incoming req see
system.mem_ctrls.rdQLenPdf::16                      0                       # What read queue length does an incoming req see
system.mem_ctrls.rdQLenPdf::17                      0                       # What read queue length does an incoming req see
system.mem_ctrls.rdQLenPdf::18                      0                       # What read queue length does an incoming req see
system.mem_ctrls.rdQLenPdf::19                      0                       # What read queue length does an incoming req see
system.mem_ctrls.rdQLenPdf::20                      0                       # What read queue length does an incoming req see
system.mem_ctrls.rdQLenPdf::21                      0                       # What read queue length does an incoming req see
system.mem_ctrls.rdQLenPdf::22                      0                       # What read queue length does an incoming req see
system.mem_ctrls.rdQLenPdf::23                      0                       # What read queue length does an incoming req see
system.mem_ctrls.rdQLenPdf::24                      0                       # What read queue length does an incoming req see
system.mem_ctrls.rdQLenPdf::25                      0                       # What read queue length does an incoming req see
system.mem_ctrls.rdQLenPdf::26                      0                       # What read queue length does an incoming req see
system.mem_ctrls.rdQLenPdf::27                      0                       # What read queue length does an incoming req see
system.mem_ctrls.rdQLenPdf::28                      0                       # What read queue length does an incoming req see
system.mem_ctrls.rdQLenPdf::29                      0                       # What read queue length does an incoming req see
system.mem_ctrls.rdQLenPdf::30                      0                       # What read queue length does an incoming req see
system.mem_ctrls.rdQLenPdf::31                      0                       # What read queue length does an incoming req see
system.mem_ctrls.wrQLenPdf::0                       1                       # What write queue length does an incoming req see
system.mem_ctrls.wrQLenPdf::1                       1                       # What write queue length does an incoming req see
system.mem_ctrls.wrQLenPdf::2                       1                       # What write queue length does an incoming req see
system.mem_ctrls.wrQLenPdf::3                       1                       # What write queue length does an incoming req see
system.mem_ctrls.wrQLenPdf::4                       1                       # What write queue length does an incoming req see
system.mem_ctrls.wrQLenPdf::5                       1                       # What write queue length does an incoming req see
system.mem_ctrls.wrQLenPdf::6                       1                       # What write queue length does an incoming req see
system.mem_ctrls.wrQLenPdf::7                       1                       # What write queue length does an incoming req see
system.mem_ctrls.wrQLenPdf::8                       1                       # What write queue length does an incoming req see
system.mem_ctrls.wrQLenPdf::9                       1                       # What write queue length does an incoming req see
system.mem_ctrls.wrQLenPdf::10                      1                       # What write queue length does an incoming req see
system.mem_ctrls.wrQLenPdf::11                      1                       # What write queue length does an incoming req see
system.mem_ctrls.wrQLenPdf::12                      1                       # What write queue length does an incoming req see
system.mem_ctrls.wrQLenPdf::13                      1                       # What write queue length does an incoming req see
system.mem_ctrls.wrQLenPdf::14                      1                       # What write queue length does an incoming req see
system.mem_ctrls.wrQLenPdf::15                   1190                       # What write queue length does an incoming req see
system.mem_ctrls.wrQLenPdf::16                   2986                       # What write queue length does an incoming req see
system.mem_ctrls.wrQLenPdf::17                  91356                       # What write queue length does an incoming req see
system.mem_ctrls.wrQLenPdf::18                  90514                       # What write queue length does an incoming req see
system.mem_ctrls.wrQLenPdf::19                  90667                       # What write queue length does an incoming req see
system.mem_ctrls.wrQLenPdf::20                  90565                       # What write queue length does an incoming req see
system.mem_ctrls.wrQLenPdf::21                  90520                       # What write queue length does an incoming req see
system.mem_ctrls.wrQLenPdf::22                  90512                       # What write queue length does an incoming req see
system.mem_ctrls.wrQLenPdf::23                  90514                       # What write queue length does an incoming req see
system.mem_ctrls.wrQLenPdf::24                  90511                       # What write queue length does an incoming req see
system.mem_ctrls.wrQLenPdf::25                  92174                       # What write queue length does an incoming req see
system.mem_ctrls.wrQLenPdf::26                  90510                       # What write queue length does an incoming req see
system.mem_ctrls.wrQLenPdf::27                  90510                       # What write queue length does an incoming req see
system.mem_ctrls.wrQLenPdf::28                  90510                       # What write queue length does an incoming req see
system.mem_ctrls.wrQLenPdf::29                  90510                       # What write queue length does an incoming req see
system.mem_ctrls.wrQLenPdf::30                  90510                       # What write queue length does an incoming req see
system.mem_ctrls.wrQLenPdf::31                  90510                       # What write queue length does an incoming req see
system.mem_ctrls.wrQLenPdf::32                  90510                       # What write queue length does an incoming req see
system.mem_ctrls.wrQLenPdf::33                      0                       # What write queue length does an incoming req see
system.mem_ctrls.wrQLenPdf::34                      0                       # What write queue length does an incoming req see
system.mem_ctrls.wrQLenPdf::35                      0                       # What write queue length does an incoming req see
system.mem_ctrls.wrQLenPdf::36                      0                       # What write queue length does an incoming req see
system.mem_ctrls.wrQLenPdf::37                      0                       # What write queue length does an incoming req see
system.mem_ctrls.wrQLenPdf::38                      0                       # What write queue length does an incoming req see
system.mem_ctrls.wrQLenPdf::39                      0                       # What write queue length does an incoming req see
system.mem_ctrls.wrQLenPdf::40                      0                       # What write queue length does an incoming req see
system.mem_ctrls.wrQLenPdf::41                      0                       # What write queue length does an incoming req see
system.mem_ctrls.wrQLenPdf::42                      0                       # What write queue length does an incoming req see
system.mem_ctrls.wrQLenPdf::43                      0                       # What write queue length does an incoming req see
system.mem_ctrls.wrQLenPdf::44                      0                       # What write queue length does an incoming req see
system.mem_ctrls.wrQLenPdf::45                      0                       # What write queue length does an incoming req see
system.mem_ctrls.wrQLenPdf::46                      0                       # What write queue length does an incoming req see
system.mem_ctrls.wrQLenPdf::47                      0                       # What write queue length does an incoming req see
system.mem_ctrls.wrQLenPdf::48                      0                       # What write queue length does an incoming req see
system.mem_ctrls.wrQLenPdf::49                      0                       # What write queue length does an incoming req see
system.mem_ctrls.wrQLenPdf::50                      0                       # What write queue length does an incoming req see
system.mem_ctrls.wrQLenPdf::51                      0                       # What write queue length does an incoming req see
system.mem_ctrls.wrQLenPdf::52                      0                       # What write queue length does an incoming req see
system.mem_ctrls.wrQLenPdf::53                      0                       # What write queue length does an incoming req see
system.mem_ctrls.wrQLenPdf::54                      0                       # What write queue length does an incoming req see
system.mem_ctrls.wrQLenPdf::55                      0                       # What write queue length does an incoming req see
system.mem_ctrls.wrQLenPdf::56                      0                       # What write queue length does an incoming req see
system.mem_ctrls.wrQLenPdf::57                      0                       # What write queue length does an incoming req see
system.mem_ctrls.wrQLenPdf::58                      0                       # What write queue length does an incoming req see
system.mem_ctrls.wrQLenPdf::59                      0                       # What write queue length does an incoming req see
system.mem_ctrls.wrQLenPdf::60                      0                       # What write queue length does an incoming req see
system.mem_ctrls.wrQLenPdf::61                      0                       # What write queue length does an incoming req see
system.mem_ctrls.wrQLenPdf::62                      0                       # What write queue length does an incoming req see
system.mem_ctrls.wrQLenPdf::63                      0                       # What write queue length does an incoming req see
system.mem_ctrls.bytesPerActivate::samples       228335                       # Bytes accessed per row activation
system.mem_ctrls.bytesPerActivate::mean    825.035356                       # Bytes accessed per row activation
system.mem_ctrls.bytesPerActivate::gmean   693.623282                       # Bytes accessed per row activation
system.mem_ctrls.bytesPerActivate::stdev   318.648384                       # Bytes accessed per row activation
system.mem_ctrls.bytesPerActivate::0-127        12890      5.65%      5.65% # Bytes accessed per row activation
system.mem_ctrls.bytesPerActivate::128-255         9611      4.21%      9.85% # Bytes accessed per row activation
system.mem_ctrls.bytesPerActivate::256-383         7574      3.32%     13.17% # Bytes accessed per row activation
system.mem_ctrls.bytesPerActivate::384-511        10897      4.77%     17.94% # Bytes accessed per row activation
system.mem_ctrls.bytesPerActivate::512-639        17188      7.53%     25.47% # Bytes accessed per row activation
system.mem_ctrls.bytesPerActivate::640-767         6557      2.87%     28.34% # Bytes accessed per row activation
system.mem_ctrls.bytesPerActivate::768-895         6200      2.72%     31.06% # Bytes accessed per row activation
system.mem_ctrls.bytesPerActivate::896-1023         9946      4.36%     35.41% # Bytes accessed per row activation
system.mem_ctrls.bytesPerActivate::1024-1151       147472     64.59%    100.00% # Bytes accessed per row activation
system.mem_ctrls.bytesPerActivate::total       228335                       # Bytes accessed per row activation
system.mem_ctrls.rdPerTurnAround::samples        90510                       # Reads before turning the bus around for writes
system.mem_ctrls.rdPerTurnAround::mean      16.445012                       # Reads before turning the bus around for writes
system.mem_ctrls.rdPerTurnAround::gmean     16.076501                       # Reads before turning the bus around for writes
system.mem_ctrls.rdPerTurnAround::stdev    103.228277                       # Reads before turning the bus around for writes
system.mem_ctrls.rdPerTurnAround::0-1023        90508    100.00%    100.00% # Reads before turning the bus around for writes
system.mem_ctrls.rdPerTurnAround::2048-3071            1      0.00%    100.00% # Reads before turning the bus around for writes
system.mem_ctrls.rdPerTurnAround::30720-31743            1      0.00%    100.00% # Reads before turning the bus around for writes
system.mem_ctrls.rdPerTurnAround::total         90510                       # Reads before turning the bus around for writes
system.mem_ctrls.wrPerTurnAround::samples        90510                       # Writes before turning the bus around for reads
system.mem_ctrls.wrPerTurnAround::mean      16.076334                       # Writes before turning the bus around for reads
system.mem_ctrls.wrPerTurnAround::gmean     16.071075                       # Writes before turning the bus around for reads
system.mem_ctrls.wrPerTurnAround::stdev      0.431392                       # Writes before turning the bus around for reads
system.mem_ctrls.wrPerTurnAround::16            87643     96.83%     96.83% # Writes before turning the bus around for reads
system.mem_ctrls.wrPerTurnAround::17               14      0.02%     96.85% # Writes before turning the bus around for reads
system.mem_ctrls.wrPerTurnAround::18             1664      1.84%     98.69% # Writes before turning the bus around for reads
system.mem_ctrls.wrPerTurnAround::19             1189      1.31%    100.00% # Writes before turning the bus around for reads
system.mem_ctrls.wrPerTurnAround::total         90510                       # Writes before turning the bus around for reads
[...]
system.cpu.icache.ReadReq_avg_miss_latency::.cpu.inst 47805.646037                       # average ReadReq miss latency
system.cpu.icache.ReadReq_avg_miss_latency::total 47805.646037                       # average ReadReq miss latency
system.cpu.icache.ReadReq_mshr_misses::.cpu.inst          921                       # number of ReadReq MSHR misses
system.cpu.icache.ReadReq_mshr_misses::total          921                       # number of ReadReq MSHR misses
system.cpu.icache.ReadReq_mshr_miss_latency::.cpu.inst     43108000                       # number of ReadReq MSHR miss cycles
system.cpu.icache.ReadReq_mshr_miss_latency::total     43108000                       # number of ReadReq MSHR miss cycles
system.cpu.icache.ReadReq_mshr_miss_rate::.cpu.inst     0.000155                       # mshr miss rate for ReadReq accesses
system.cpu.icache.ReadReq_mshr_miss_rate::total     0.000155                       # mshr miss rate for ReadReq accesses
system.cpu.icache.ReadReq_avg_mshr_miss_latency::.cpu.inst 46805.646037                       # average ReadReq mshr miss latency
system.cpu.icache.ReadReq_avg_mshr_miss_latency::total 46805.646037                       # average ReadReq mshr miss latency
system.cpu.icache.tags.pwrStateResidencyTicks::UNDEFINED 174693774500                       # Cumulative time (in ticks) in various power states
system.cpu.icache.tags.tagsinuse           127.993358                       # Cycle average of tags in use
system.cpu.icache.tags.total_refs             5959409                       # Total number of references to valid blocks.
system.cpu.icache.tags.sampled_refs               921                       # Sample count of references to valid blocks.
system.cpu.icache.tags.avg_refs           6470.585233                       # Average number of references to valid blocks.
system.cpu.icache.tags.warmup_cycle             87500                       # Cycle when the warmup percentage was hit.
system.cpu.icache.tags.occ_blocks::.cpu.inst   127.993358                       # Average occupied blocks per requestor
system.cpu.icache.tags.occ_percent::.cpu.inst     0.999948                       # Average percentage of cache occupancy
system.cpu.icache.tags.occ_percent::total     0.999948                       # Average percentage of cache occupancy
system.cpu.icache.tags.occ_task_id_blocks::1024          128                       # Occupied blocks per task id
system.cpu.icache.tags.age_task_id_blocks_1024::4          128                       # Occupied blocks per task id
system.cpu.icache.tags.occ_task_id_percent::1024            1                       # Percentage of cache occupancy per task id
system.cpu.icache.tags.tag_accesses          11919739                       # Number of tag accesses
system.cpu.icache.tags.data_accesses         11919739                       # Number of data accesses
system.cpu.dtb.walker.pwrStateResidencyTicks::UNDEFINED 174693774500                       # Cumulative time (in ticks) in various power states
system.cpu.dtb.stage2_mmu.stage2_tlb.walker.pwrStateResidencyTicks::UNDEFINED 174693774500                       # Cumulative time (in ticks) in various power states
system.cpu.dcache.pwrStateResidencyTicks::UNDEFINED 174693774500                       # Cumulative time (in ticks) in various power states
system.cpu.dcache.demand_hits::.cpu.data     45830702                       # number of demand (read+write) hits
system.cpu.dcache.demand_hits::total         45830702                       # number of demand (read+write) hits
system.cpu.dcache.overall_hits::.cpu.data     45830739                       # number of overall hits
system.cpu.dcache.overall_hits::total        45830739                       # number of overall hits
system.cpu.dcache.demand_misses::.cpu.data      2975785                       # number of demand (read+write) misses
system.cpu.dcache.demand_misses::total        2975785                       # number of demand (read+write) misses
system.cpu.dcache.overall_misses::.cpu.data      2975805                       # number of overall misses
system.cpu.dcache.overall_misses::total       2975805                       # number of overall misses
system.cpu.dcache.demand_miss_latency::.cpu.data 237249326500                       # number of demand (read+write) miss cycles
system.cpu.dcache.demand_miss_latency::total 237249326500                       # number of demand (read+write) miss cycles
system.cpu.dcache.overall_miss_latency::.cpu.data 237249326500                       # number of overall miss cycles
system.cpu.dcache.overall_miss_latency::total 237249326500                       # number of overall miss cycles
system.cpu.dcache.demand_accesses::.cpu.data     48806487                       # number of demand (read+write) accesses
system.cpu.dcache.demand_accesses::total     48806487                       # number of demand (read+write) accesses
system.cpu.dcache.overall_accesses::.cpu.data     48806544                       # number of overall (read+write) accesses
system.cpu.dcache.overall_accesses::total     48806544                       # number of overall (read+write) accesses
system.cpu.dcache.demand_miss_rate::.cpu.data     0.060971                       # miss rate for demand accesses
system.cpu.dcache.demand_miss_rate::total     0.060971                       # miss rate for demand accesses
system.cpu.dcache.overall_miss_rate::.cpu.data     0.060971                       # miss rate for overall accesses
system.cpu.dcache.overall_miss_rate::total     0.060971                       # miss rate for overall accesses
system.cpu.dcache.demand_avg_miss_latency::.cpu.data 79726.635661                       # average overall miss latency
system.cpu.dcache.demand_avg_miss_latency::total 79726.635661                       # average overall miss latency
system.cpu.dcache.overall_avg_miss_latency::.cpu.data 79726.099828                       # average overall miss latency
system.cpu.dcache.overall_avg_miss_latency::total 79726.099828                       # average overall miss latency
system.cpu.dcache.blocked_cycles::no_mshrs            0                       # number of cycles access was blocked
system.cpu.dcache.blocked_cycles::no_targets            0                       # number of cycles access was blocked
system.cpu.dcache.blocked::no_mshrs                 0                       # number of cycles access was blocked
system.cpu.dcache.blocked::no_targets               0                       # number of cycles access was blocked
system.cpu.dcache.avg_blocked_cycles::no_mshrs          nan                       # average number of cycles each access was blocked
system.cpu.dcache.avg_blocked_cycles::no_targets          nan                       # average number of cycles each access was blocked
system.cpu.dcache.writebacks::.writebacks      1486840                       # number of writebacks
system.cpu.dcache.writebacks::total           1486840                       # number of writebacks
system.cpu.dcache.demand_mshr_hits::.cpu.data      1487826                       # number of demand (read+write) MSHR hits
system.cpu.dcache.demand_mshr_hits::total      1487826                       # number of demand (read+write) MSHR hits
system.cpu.dcache.overall_mshr_hits::.cpu.data      1487826                       # number of overall MSHR hits
system.cpu.dcache.overall_mshr_hits::total      1487826                       # number of overall MSHR hits
system.cpu.dcache.demand_mshr_misses::.cpu.data      1487959                       # number of demand (read+write) MSHR misses
system.cpu.dcache.demand_mshr_misses::total      1487959                       # number of demand (read+write) MSHR misses
system.cpu.dcache.overall_mshr_misses::.cpu.data      1487975                       # number of overall MSHR misses
system.cpu.dcache.overall_mshr_misses::total      1487975                       # number of overall MSHR misses
system.cpu.dcache.demand_mshr_miss_latency::.cpu.data 121084826500                       # number of demand (read+write) MSHR miss cycles
system.cpu.dcache.demand_mshr_miss_latency::total 121084826500                       # number of demand (read+write) MSHR miss cycles
system.cpu.dcache.overall_mshr_miss_latency::.cpu.data 121086083500                       # number of overall MSHR miss cycles
system.cpu.dcache.overall_mshr_miss_latency::total 121086083500                       # number of overall MSHR miss cycles
system.cpu.dcache.demand_mshr_miss_rate::.cpu.data     0.030487                       # mshr miss rate for demand accesses
system.cpu.dcache.demand_mshr_miss_rate::total     0.030487                       # mshr miss rate for demand accesses
system.cpu.dcache.overall_mshr_miss_rate::.cpu.data     0.030487                       # mshr miss rate for overall accesses
system.cpu.dcache.overall_mshr_miss_rate::total     0.030487                       # mshr miss rate for overall accesses
system.cpu.dcache.demand_avg_mshr_miss_latency::.cpu.data 81376.453585                       # average overall mshr miss latency
system.cpu.dcache.demand_avg_mshr_miss_latency::total 81376.453585                       # average overall mshr miss latency
system.cpu.dcache.overall_avg_mshr_miss_latency::.cpu.data 81376.423327                       # average overall mshr miss latency
system.cpu.dcache.overall_avg_mshr_miss_latency::total 81376.423327                       # average overall mshr miss latency
system.cpu.dcache.replacements                1486951                       # number of replacements
system.cpu.dcache.ReadReq_hits::.cpu.data     35710814                       # number of ReadReq hits
system.cpu.dcache.ReadReq_hits::total        35710814                       # number of ReadReq hits
system.cpu.dcache.ReadReq_misses::.cpu.data          120                       # number of ReadReq misses
system.cpu.dcache.ReadReq_misses::total           120                       # number of ReadReq misses
system.cpu.dcache.ReadReq_miss_latency::.cpu.data      9470500                       # number of ReadReq miss cycles
system.cpu.dcache.ReadReq_miss_latency::total      9470500                       # number of ReadReq miss cycles
system.cpu.dcache.ReadReq_accesses::.cpu.data     35710934                       # number of ReadReq accesses(hits+misses)
system.cpu.dcache.ReadReq_accesses::total     35710934                       # number of ReadReq accesses(hits+misses)
system.cpu.dcache.ReadReq_miss_rate::.cpu.data     0.000003                       # miss rate for ReadReq accesses
system.cpu.dcache.ReadReq_miss_rate::total     0.000003                       # miss rate for ReadReq accesses
system.cpu.dcache.ReadReq_avg_miss_latency::.cpu.data 78920.833333                       # average ReadReq miss latency
system.cpu.dcache.ReadReq_avg_miss_latency::total 78920.833333                       # average ReadReq miss latency
system.cpu.dcache.ReadReq_mshr_hits::.cpu.data            6                       # number of ReadReq MSHR hits
system.cpu.dcache.ReadReq_mshr_hits::total            6                       # number of ReadReq MSHR hits
system.cpu.dcache.ReadReq_mshr_misses::.cpu.data          114                       # number of ReadReq MSHR misses
system.cpu.dcache.ReadReq_mshr_misses::total          114                       # number of ReadReq MSHR misses
system.cpu.dcache.ReadReq_mshr_miss_latency::.cpu.data      8942000                       # number of ReadReq MSHR miss cycles
system.cpu.dcache.ReadReq_mshr_miss_latency::total      8942000                       # number of ReadReq MSHR miss cycles
system.cpu.dcache.ReadReq_mshr_miss_rate::.cpu.data     0.000003                       # mshr miss rate for ReadReq accesses
system.cpu.dcache.ReadReq_mshr_miss_rate::total     0.000003                       # mshr miss rate for ReadReq accesses
system.cpu.dcache.ReadReq_avg_mshr_miss_latency::.cpu.data 78438.596491                       # average ReadReq mshr miss latency
system.cpu.dcache.ReadReq_avg_mshr_miss_latency::total 78438.596491                       # average ReadReq mshr miss latency
system.cpu.dcache.WriteReq_hits::.cpu.data     10119888                       # number of WriteReq hits
system.cpu.dcache.WriteReq_hits::total       10119888                       # number of WriteReq hits
system.cpu.dcache.WriteReq_misses::.cpu.data      2975665                       # number of WriteReq misses
system.cpu.dcache.WriteReq_misses::total      2975665                       # number of WriteReq misses
system.cpu.dcache.WriteReq_miss_latency::.cpu.data 237239856000                       # number of WriteReq miss cycles
system.cpu.dcache.WriteReq_miss_latency::total 237239856000                       # number of WriteReq miss cycles
system.cpu.dcache.WriteReq_accesses::.cpu.data     13095553                       # number of WriteReq accesses(hits+misses)
system.cpu.dcache.WriteReq_accesses::total     13095553                       # number of WriteReq accesses(hits+misses)
system.cpu.dcache.WriteReq_miss_rate::.cpu.data     0.227227                       # miss rate for WriteReq accesses
system.cpu.dcache.WriteReq_miss_rate::total     0.227227                       # miss rate for WriteReq accesses
system.cpu.dcache.WriteReq_avg_miss_latency::.cpu.data 79726.668157                       # average WriteReq miss latency
system.cpu.dcache.WriteReq_avg_miss_latency::total 79726.668157                       # average WriteReq miss latency
system.cpu.dcache.WriteReq_mshr_hits::.cpu.data      1487820                       # number of WriteReq MSHR hits
system.cpu.dcache.WriteReq_mshr_hits::total      1487820                       # number of WriteReq MSHR hits
system.cpu.dcache.WriteReq_mshr_misses::.cpu.data      1487845                       # number of WriteReq MSHR misses
system.cpu.dcache.WriteReq_mshr_misses::total      1487845                       # number of WriteReq MSHR misses
system.cpu.dcache.WriteReq_mshr_miss_latency::.cpu.data 121075884500                       # number of WriteReq MSHR miss cycles
system.cpu.dcache.WriteReq_mshr_miss_latency::total 121075884500                       # number of WriteReq MSHR miss cycles
system.cpu.dcache.WriteReq_mshr_miss_rate::.cpu.data     0.113615                       # mshr miss rate for WriteReq accesses
system.cpu.dcache.WriteReq_mshr_miss_rate::total     0.113615                       # mshr miss rate for WriteReq accesses
system.cpu.dcache.WriteReq_avg_mshr_miss_latency::.cpu.data 81376.678686                       # average WriteReq mshr miss latency
system.cpu.dcache.WriteReq_avg_mshr_miss_latency::total 81376.678686                       # average WriteReq mshr miss latency
system.cpu.dcache.SoftPFReq_hits::.cpu.data           37                       # number of SoftPFReq hits
system.cpu.dcache.SoftPFReq_hits::total            37                       # number of SoftPFReq hits
system.cpu.dcache.SoftPFReq_misses::.cpu.data           20                       # number of SoftPFReq misses
system.cpu.dcache.SoftPFReq_misses::total           20                       # number of SoftPFReq misses
system.cpu.dcache.SoftPFReq_accesses::.cpu.data           57                       # number of SoftPFReq accesses(hits+misses)
system.cpu.dcache.SoftPFReq_accesses::total           57                       # number of SoftPFReq accesses(hits+misses)
system.cpu.dcache.SoftPFReq_miss_rate::.cpu.data     0.350877                       # miss rate for SoftPFReq accesses
system.cpu.dcache.SoftPFReq_miss_rate::total     0.350877                       # miss rate for SoftPFReq accesses
system.cpu.dcache.SoftPFReq_mshr_misses::.cpu.data           16                       # number of SoftPFReq MSHR misses
system.cpu.dcache.SoftPFReq_mshr_misses::total           16                       # number of SoftPFReq MSHR misses
system.cpu.dcache.SoftPFReq_mshr_miss_latency::.cpu.data      1257000                       # number of SoftPFReq MSHR miss cycles
system.cpu.dcache.SoftPFReq_mshr_miss_latency::total      1257000                       # number of SoftPFReq MSHR miss cycles
system.cpu.dcache.SoftPFReq_mshr_miss_rate::.cpu.data     0.280702                       # mshr miss rate for SoftPFReq accesses
system.cpu.dcache.SoftPFReq_mshr_miss_rate::total     0.280702                       # mshr miss rate for SoftPFReq accesses
system.cpu.dcache.SoftPFReq_avg_mshr_miss_latency::.cpu.data 78562.500000                       # average SoftPFReq mshr miss latency
system.cpu.dcache.SoftPFReq_avg_mshr_miss_latency::total 78562.500000                       # average SoftPFReq mshr miss latency
system.cpu.dcache.LoadLockedReq_hits::.cpu.data           14                       # number of LoadLockedReq hits
system.cpu.dcache.LoadLockedReq_hits::total           14                       # number of LoadLockedReq hits
system.cpu.dcache.LoadLockedReq_accesses::.cpu.data           14                       # number of LoadLockedReq accesses(hits+misses)
system.cpu.dcache.LoadLockedReq_accesses::total           14                       # number of LoadLockedReq accesses(hits+misses)
system.cpu.dcache.StoreCondReq_hits::.cpu.data           14                       # number of StoreCondReq hits
system.cpu.dcache.StoreCondReq_hits::total           14                       # number of StoreCondReq hits
system.cpu.dcache.StoreCondReq_accesses::.cpu.data           14                       # number of StoreCondReq accesses(hits+misses)
system.cpu.dcache.StoreCondReq_accesses::total           14                       # number of StoreCondReq accesses(hits+misses)
system.cpu.dcache.tags.pwrStateResidencyTicks::UNDEFINED 174693774500                       # Cumulative time (in ticks) in various power states
system.cpu.dcache.tags.tagsinuse          1023.420921                       # Cycle average of tags in use
system.cpu.dcache.tags.total_refs            47318742                       # Total number of references to valid blocks.
system.cpu.dcache.tags.sampled_refs           1487975                       # Sample count of references to valid blocks.
system.cpu.dcache.tags.avg_refs             31.800764                       # Average number of references to valid blocks.
system.cpu.dcache.tags.warmup_cycle            176500                       # Cycle when the warmup percentage was hit.
system.cpu.dcache.tags.occ_blocks::.cpu.data  1023.420921                       # Average occupied blocks per requestor
system.cpu.dcache.tags.occ_percent::.cpu.data     0.999434                       # Average percentage of cache occupancy
system.cpu.dcache.tags.occ_percent::total     0.999434                       # Average percentage of cache occupancy
system.cpu.dcache.tags.occ_task_id_blocks::1024         1024                       # Occupied blocks per task id
system.cpu.dcache.tags.age_task_id_blocks_1024::0           85                       # Occupied blocks per task id
system.cpu.dcache.tags.age_task_id_blocks_1024::1          764                       # Occupied blocks per task id
system.cpu.dcache.tags.age_task_id_blocks_1024::2          173                       # Occupied blocks per task id
system.cpu.dcache.tags.age_task_id_blocks_1024::4            2                       # Occupied blocks per task id
system.cpu.dcache.tags.occ_task_id_percent::1024            1                       # Percentage of cache occupancy per task id
system.cpu.dcache.tags.tag_accesses          99101119                       # Number of tag accesses
system.cpu.dcache.tags.data_accesses         99101119                       # Number of data accesses
system.cpu.itb.walker.pwrStateResidencyTicks::UNDEFINED 174693774500                       # Cumulative time (in ticks) in various power states
system.cpu.itb.stage2_mmu.stage2_tlb.walker.pwrStateResidencyTicks::UNDEFINED 174693774500                       # Cumulative time (in ticks) in various power states

---------- End Simulation Statistics   ----------
