
---------- Begin Simulation Statistics ----------
final_tick                                62676848000                       # Number of ticks from beginning of simulation (restored from checkpoints and never reset)
host_inst_rate                                 140070                       # Simulator instruction rate (inst/s)
host_mem_usage                                 699292                       # Number of bytes of host memory used
host_op_rate                                   153282                       # Simulator op (including micro ops) rate (op/s)
host_seconds                                   713.93                       # Real time elapsed on the host
host_tick_rate                               87791682                       # Simulator tick rate (ticks/s)
sim_freq                                 1000000000000                       # Frequency of simulated ticks
sim_insts                                   100000000                       # Number of instructions simulated
sim_ops                                     109432207                       # Number of ops (including micro ops) simulated
sim_seconds                                  0.062677                       # Number of seconds simulated
sim_ticks                                 62676848000                       # Number of ticks simulated
system.cpu.branchPred.BTBCorrect                    0                       # Number of correct BTB predictions (this stat may not work properly.
system.cpu.branchPred.BTBHitPct             88.129418                       # BTB Hit Percentage
system.cpu.branchPred.BTBHits                 8691221                       # Number of BTB hits
system.cpu.branchPred.BTBLookups              9861884                       # Number of BTB lookups
system.cpu.branchPred.RASInCorrect                345                       # Number of incorrect RAS predictions.
system.cpu.branchPred.condIncorrect            142533                       # Number of conditional branches incorrect
system.cpu.branchPred.condPredicted          16286166                       # Number of conditional branches predicted
system.cpu.branchPred.indirectHits             300049                       # Number of indirect target hits.
system.cpu.branchPred.indirectLookups          434117                       # Number of indirect predictor lookups.
system.cpu.branchPred.indirectMisses           134068                       # Number of indirect misses.
system.cpu.branchPred.lookups                20348641                       # Number of BP lookups
system.cpu.branchPred.usedRAS                 1050731                       # Number of times the RAS was used to get a target.
system.cpu.branchPredindirectMispredicted         1066                       # Number of mispredicted indirect branches.
system.cpu.committedInsts                   100000000                       # Number of instructions committed
system.cpu.committedOps                     109432207                       # Number of ops (including micro ops) committed
system.cpu.cpi                               1.253537                       # CPI: cycles per instruction
system.cpu.discardedOps                        733825                       # Number of ops (including micro ops) which were discarded before commit
system.cpu.dtb.accesses                             0                       # DTB accesses
system.cpu.dtb.align_faults                         0                       # Number of TLB faults due to alignment restrictions
system.cpu.dtb.domain_faults                        0                       # Number of TLB faults due to domain restrictions
system.cpu.dtb.flush_entries                        0                       # Number of entries that have been flushed from TLB
system.cpu.dtb.flush_tlb                            0                       # Number of times complete TLB was flushed
system.cpu.dtb.flush_tlb_asid                       0                       # Number of times TLB was flushed by ASID
system.cpu.dtb.flush_tlb_mva                        0                       # Number of times TLB was flushed by MVA
system.cpu.dtb.flush_tlb_mva_asid                   0                       # Number of times TLB was flushed by MVA & ASID
system.cpu.dtb.hits                                 0                       # DTB hits
system.cpu.dtb.inst_accesses                        0                       # ITB inst accesses
system.cpu.dtb.inst_hits                            0                       # ITB inst hits
system.cpu.dtb.inst_misses                          0                       # ITB inst misses
system.cpu.dtb.misses                               0                       # DTB misses
system.cpu.dtb.perms_faults                         0                       # Number of TLB faults due to permissions restrictions
system.cpu.dtb.prefetch_faults                      0                       # Number of TLB faults due to prefetch
system.cpu.dtb.read_accesses                        0                       # DTB read accesses
system.cpu.dtb.read_hits                            0                       # DTB read hits
system.cpu.dtb.read_misses                          0                       # DTB read misses
system.cpu.dtb.stage2_mmu.stage2_tlb.accesses            0                       # DTB accesses
system.cpu.dtb.stage2_mmu.stage2_tlb.align_faults            0                       # Number of TLB faults due to alignment restrictions
system.cpu.dtb.stage2_mmu.stage2_tlb.domain_faults            0                       # Number of TLB faults due to domain restrictions
system.cpu.dtb.stage2_mmu.stage2_tlb.flush_entries            0                       # Number of entries that have been flushed from TLB
system.cpu.dtb.stage2_mmu.stage2_tlb.flush_tlb            0                       # Number of times complete TLB was flushed
system.cpu.dtb.stage2_mmu.stage2_tlb.flush_tlb_asid            0                       # Number of times TLB was flushed by ASID
system.cpu.dtb.stage2_mmu.stage2_tlb.flush_tlb_mva            0                       # Number of times TLB was flushed by MVA
system.cpu.dtb.stage2_mmu.stage2_tlb.flush_tlb_mva_asid            0                       # Number of times TLB was flushed by MVA & ASID
system.cpu.dtb.stage2_mmu.stage2_tlb.hits            0                       # DTB hits
system.cpu.dtb.stage2_mmu.stage2_tlb.inst_accesses            0                       # ITB inst accesses
system.cpu.dtb.stage2_mmu.stage2_tlb.inst_hits            0                       # ITB inst hits
system.cpu.dtb.stage2_mmu.stage2_tlb.inst_misses            0                       # ITB inst misses
system.cpu.dtb.stage2_mmu.stage2_tlb.misses            0                       # DTB misses
system.cpu.dtb.stage2_mmu.stage2_tlb.perms_faults            0                       # Number of TLB faults due to permissions restrictions
system.cpu.dtb.stage2_mmu.stage2_tlb.prefetch_faults            0                       # Number of TLB faults due to prefetch
system.cpu.dtb.stage2_mmu.stage2_tlb.read_accesses            0                       # DTB read accesses
system.cpu.dtb.stage2_mmu.stage2_tlb.read_hits            0                       # DTB read hits
system.cpu.dtb.stage2_mmu.stage2_tlb.read_misses            0                       # DTB read misses
system.cpu.dtb.stage2_mmu.stage2_tlb.walker.walkRequestOrigin_Requested::Data            0                       # Table walker requests started/completed, data/inst
system.cpu.dtb.stage2_mmu.stage2_tlb.walker.walkRequestOrigin_Requested::Inst            0                       # Table walker requests started/completed, data/inst
system.cpu.dtb.stage2_mmu.stage2_tlb.walker.walkRequestOrigin_Requested::total            0                       # Table walker requests started/completed, data/inst
system.cpu.dtb.stage2_mmu.stage2_tlb.walker.walkRequestOrigin_Completed::Data            0                       # Table walker requests started/completed, data/inst
system.cpu.dtb.stage2_mmu.stage2_tlb.walker.walkRequestOrigin_Completed::Inst            0                       # Table walker requests started/completed, data/inst
system.cpu.dtb.stage2_mmu.stage2_tlb.walker.walkRequestOrigin_Completed::total            0                       # Table walker requests started/completed, data/inst
system.cpu.dtb.stage2_mmu.stage2_tlb.walker.walkRequestOrigin::total            0                       # Table walker requests started/completed, data/inst
system.cpu.dtb.stage2_mmu.stage2_tlb.walker.walks            0                       # Table walker walks requested
system.cpu.dtb.stage2_mmu.stage2_tlb.write_accesses            0                       # DTB write accesses
system.cpu.dtb.stage2_mmu.stage2_tlb.write_hits            0                       # DTB write hits
system.cpu.dtb.stage2_mmu.stage2_tlb.write_misses            0                       # DTB write misses
system.cpu.dtb.walker.walkRequestOrigin_Requested::Data            0                       # Table walker requests started/completed, data/inst
system.cpu.dtb.walker.walkRequestOrigin_Requested::Inst            0                       # Table walker requests started/completed, data/inst
system.cpu.dtb.walker.walkRequestOrigin_Requested::total            0                       # Table walker requests started/completed, data/inst
system.cpu.dtb.walker.walkRequestOrigin_Completed::Data            0                       # Table walker requests started/completed, data/inst
system.cpu.dtb.walker.walkRequestOrigin_Completed::Inst            0                       # Table walker requests started/completed, data/inst
system.cpu.dtb.walker.walkRequestOrigin_Completed::total            0                       # Table walker requests started/completed, data/inst
system.cpu.dtb.walker.walkRequestOrigin::total            0                       # Table walker requests started/completed, data/inst
system.cpu.dtb.walker.walks                         0                       # Table walker walks requested
system.cpu.dtb.write_accesses                       0                       # DTB write accesses
system.cpu.dtb.write_hits                           0                       # DTB write hits
system.cpu.dtb.write_misses                         0                       # DTB write misses
system.cpu.fetch2.amo_instructions                  0                       # Number of memory atomic instructions successfully decoded
system.cpu.fetch2.fp_instructions                   0                       # Number of floating point instructions successfully decoded
system.cpu.fetch2.int_instructions           48960500                       # Number of integer instructions successfully decoded
system.cpu.fetch2.load_instructions          17046454                       # Number of memory load instructions successfully decoded
system.cpu.fetch2.store_instructions          9848777                       # Number of memory store instructions successfully decoded
system.cpu.fetch2.vec_instructions                  0                       # Number of SIMD instructions successfully decoded
system.cpu.idleCycles                        10122799                       # Total number of cycles that the object has spent stopped
system.cpu.ipc                               0.797743                       # IPC: instructions per cycle
system.cpu.itb.accesses                             0                       # DTB accesses
system.cpu.itb.align_faults                         0                       # Number of TLB faults due to alignment restrictions
system.cpu.itb.domain_faults                        0                       # Number of TLB faults due to domain restrictions
system.cpu.itb.flush_entries                        0                       # Number of entries that have been flushed from TLB
system.cpu.itb.flush_tlb                            0                       # Number of times complete TLB was flushed
system.cpu.itb.flush_tlb_asid                       0                       # Number of times TLB was flushed by ASID
system.cpu.itb.flush_tlb_mva                        0                       # Number of times TLB was flushed by MVA
system.cpu.itb.flush_tlb_mva_asid                   0                       # Number of times TLB was flushed by MVA & ASID
system.cpu.itb.hits                                 0                       # DTB hits
system.cpu.itb.inst_accesses                        0                       # ITB inst accesses
system.cpu.itb.inst_hits                            0                       # ITB inst hits
system.cpu.itb.inst_misses                          0                       # ITB inst misses
system.cpu.itb.misses                               0                       # DTB misses
system.cpu.itb.perms_faults                         0                       # Number of TLB faults due to permissions restrictions
system.cpu.itb.prefetch_faults                      0                       # Number of TLB faults due to prefetch
system.cpu.itb.read_accesses                        0                       # DTB read accesses
system.cpu.itb.read_hits                            0                       # DTB read hits
system.cpu.itb.read_misses                          0                       # DTB read misses
system.cpu.itb.stage2_mmu.stage2_tlb.accesses            0                       # DTB accesses
system.cpu.itb.stage2_mmu.stage2_tlb.align_faults            0                       # Number of TLB faults due to alignment restrictions
system.cpu.itb.stage2_mmu.stage2_tlb.domain_faults            0                       # Number of TLB faults due to domain restrictions
system.cpu.itb.stage2_mmu.stage2_tlb.flush_entries            0                       # Number of entries that have been flushed from TLB
system.cpu.itb.stage2_mmu.stage2_tlb.flush_tlb            0                       # Number of times complete TLB was flushed
system.cpu.itb.stage2_mmu.stage2_tlb.flush_tlb_asid            0                       # Number of times TLB was flushed by ASID
system.cpu.itb.stage2_mmu.stage2_tlb.flush_tlb_mva            0                       # Number of times TLB was flushed by MVA
system.cpu.itb.stage2_mmu.stage2_tlb.flush_tlb_mva_asid            0                       # Number of times TLB was flushed by MVA & ASID
system.cpu.itb.stage2_mmu.stage2_tlb.hits            0                       # DTB hits
system.cpu.itb.stage2_mmu.stage2_tlb.inst_accesses            0                       # ITB inst accesses
system.cpu.itb.stage2_mmu.stage2_tlb.inst_hits            0                       # ITB inst hits
system.cpu.itb.stage2_mmu.stage2_tlb.inst_misses            0                       # ITB inst misses
system.cpu.itb.stage2_mmu.stage2_tlb.misses            0                       # DTB misses
system.cpu.itb.stage2_mmu.stage2_tlb.perms_faults            0                       # Number of TLB faults due to permissions restrictions
system.cpu.itb.stage2_mmu.stage2_tlb.prefetch_faults            0                       # Number of TLB faults due to prefetch
system.cpu.itb.stage2_mmu.stage2_tlb.read_accesses            0                       # DTB read accesses
system.cpu.itb.stage2_mmu.stage2_tlb.read_hits            0                       # DTB read hits
system.cpu.itb.stage2_mmu.stage2_tlb.read_misses            0                       # DTB read misses
system.cpu.itb.stage2_mmu.stage2_tlb.walker.walkRequestOrigin_Requested::Data            0                       # Table walker requests started/completed, data/inst
system.cpu.itb.stage2_mmu.stage2_tlb.walker.walkRequestOrigin_Requested::Inst            0                       # Table walker requests started/completed, data/inst
system.cpu.itb.stage2_mmu.stage2_tlb.walker.walkRequestOrigin_Requested::total            0                       # Table walker requests started/completed, data/inst
system.cpu.itb.stage2_mmu.stage2_tlb.walker.walkRequestOrigin_Completed::Data            0                       # Table walker requests started/completed, data/inst
system.cpu.itb.stage2_mmu.stage2_tlb.walker.walkRequestOrigin_Completed::Inst            0                       # Table walker requests started/completed, data/inst
system.cpu.itb.stage2_mmu.stage2_tlb.walker.walkRequestOrigin_Completed::total            0                       # Table walker requests started/completed, data/inst
system.cpu.itb.stage2_mmu.stage2_tlb.walker.walkRequestOrigin::total            0                       # Table walker requests started/completed, data/inst
system.cpu.itb.stage2_mmu.stage2_tlb.walker.walks            0                       # Table walker walks requested
system.cpu.itb.stage2_mmu.stage2_tlb.write_accesses            0                       # DTB write accesses
system.cpu.itb.stage2_mmu.stage2_tlb.write_hits            0                       # DTB write hits
system.cpu.itb.stage2_mmu.stage2_tlb.write_misses            0                       # DTB write misses
system.cpu.itb.walker.walkRequestOrigin_Requested::Data            0                       # Table walker requests started/completed, data/inst
system.cpu.itb.walker.walkRequestOrigin_Requested::Inst            0                       # Table walker requests started/completed, data/inst
system.cpu.itb.walker.walkRequestOrigin_Requested::total            0                       # Table walker requests started/completed, data/inst
system.cpu.itb.walker.walkRequestOrigin_Completed::Data            0                       # Table walker requests started/completed, data/inst
system.cpu.itb.walker.walkRequestOrigin_Completed::Inst            0                       # Table walker requests started/completed, data/inst
system.cpu.itb.walker.walkRequestOrigin_Completed::total            0                       # Table walker requests started/completed, data/inst
system.cpu.itb.walker.walkRequestOrigin::total            0                       # Table walker requests started/completed, data/inst
system.cpu.itb.walker.walks                         0                       # Table walker walks requested
system.cpu.itb.write_accesses                       0                       # DTB write accesses
system.cpu.itb.write_hits                           0                       # DTB write hits
system.cpu.itb.write_misses                         0                       # DTB write misses
system.cpu.numCycles                        125353696                       # number of cpu cycles simulated
system.cpu.numFetchSuspends                         0                       # Number of times Execute suspended instruction fetching
system.cpu.numWorkItemsCompleted                    0                       # number of work items this cpu completed
system.cpu.numWorkItemsStarted                      0                       # number of work items this cpu started
system.cpu.op_class_0::No_OpClass                   0      0.00%      0.00% # Class of committed instruction
system.cpu.op_class_0::IntAlu                72955543     66.67%     66.67% # Class of committed instruction
system.cpu.op_class_0::IntMult                 568363      0.52%     67.19% # Class of committed instruction
system.cpu.op_class_0::IntDiv                       0      0.00%     67.19% # Class of committed instruction
system.cpu.op_class_0::FloatAdd                     0      0.00%     67.19% # Class of committed instruction
system.cpu.op_class_0::FloatCmp                     0      0.00%     67.19% # Class of committed instruction
system.cpu.op_class_0::FloatCvt                     0      0.00%     67.19% # Class of committed instruction
system.cpu.op_class_0::FloatMult                    0      0.00%     67.19% # Class of committed instruction
system.cpu.op_class_0::FloatMultAcc                 0      0.00%     67.19% # Class of committed instruction
system.cpu.op_class_0::FloatDiv                     0      0.00%     67.19% # Class of committed instruction
system.cpu.op_class_0::FloatMisc                    0      0.00%     67.19% # Class of committed instruction
system.cpu.op_class_0::FloatSqrt                    0      0.00%     67.19% # Class of committed instruction
system.cpu.op_class_0::SimdAdd                 241244      0.22%     67.41% # Class of committed instruction
system.cpu.op_class_0::SimdAddAcc                   0      0.00%     67.41% # Class of committed instruction
system.cpu.op_class_0::SimdAlu                 154714      0.14%     67.55% # Class of committed instruction
system.cpu.op_class_0::SimdCmp                 120622      0.11%     67.66% # Class of committed instruction
system.cpu.op_class_0::SimdCvt                      0      0.00%     67.66% # Class of committed instruction
system.cpu.op_class_0::SimdMisc                 44543      0.04%     67.70% # Class of committed instruction
system.cpu.op_class_0::SimdMult                     0      0.00%     67.70% # Class of committed instruction
system.cpu.op_class_0::SimdMultAcc                  0      0.00%     67.70% # Class of committed instruction
system.cpu.op_class_0::SimdShift                    0      0.00%     67.70% # Class of committed instruction
system.cpu.op_class_0::SimdShiftAcc                 0      0.00%     67.70% # Class of committed instruction
system.cpu.op_class_0::SimdDiv                      0      0.00%     67.70% # Class of committed instruction
system.cpu.op_class_0::SimdSqrt                     0      0.00%     67.70% # Class of committed instruction
system.cpu.op_class_0::SimdFloatAdd                 0      0.00%     67.70% # Class of committed instruction
system.cpu.op_class_0::SimdFloatAlu                 0      0.00%     67.70% # Class of committed instruction
system.cpu.op_class_0::SimdFloatCmp                 0      0.00%     67.70% # Class of committed instruction
system.cpu.op_class_0::SimdFloatCvt                 0      0.00%     67.70% # Class of committed instruction
system.cpu.op_class_0::SimdFloatDiv                 0      0.00%     67.70% # Class of committed instruction
system.cpu.op_class_0::SimdFloatMisc           166460      0.15%     67.85% # Class of committed instruction
system.cpu.op_class_0::SimdFloatMult                0      0.00%     67.85% # Class of committed instruction
system.cpu.op_class_0::SimdFloatMultAcc             0      0.00%     67.85% # Class of committed instruction
system.cpu.op_class_0::SimdFloatSqrt                0      0.00%     67.85% # Class of committed instruction
system.cpu.op_class_0::SimdReduceAdd                0      0.00%     67.85% # Class of committed instruction
system.cpu.op_class_0::SimdReduceAlu                0      0.00%     67.85% # Class of committed instruction
system.cpu.op_class_0::SimdReduceCmp                0      0.00%     67.85% # Class of committed instruction
system.cpu.op_class_0::SimdFloatReduceAdd            0      0.00%     67.85% # Class of committed instruction
system.cpu.op_class_0::SimdFloatReduceCmp            0      0.00%     67.85% # Class of committed instruction
system.cpu.op_class_0::SimdAes                      0      0.00%     67.85% # Class of committed instruction
system.cpu.op_class_0::SimdAesMix                   0      0.00%     67.85% # Class of committed instruction
system.cpu.op_class_0::SimdSha1Hash                 0      0.00%     67.85% # Class of committed instruction
system.cpu.op_class_0::SimdSha1Hash2                0      0.00%     67.85% # Class of committed instruction
system.cpu.op_class_0::SimdSha256Hash               0      0.00%     67.85% # Class of committed instruction
system.cpu.op_class_0::SimdSha256Hash2              0      0.00%     67.85% # Class of committed instruction
system.cpu.op_class_0::SimdShaSigma2                0      0.00%     67.85% # Class of committed instruction
system.cpu.op_class_0::SimdShaSigma3                0      0.00%     67.85% # Class of committed instruction
system.cpu.op_class_0::SimdPredAlu                  0      0.00%     67.85% # Class of committed instruction
system.cpu.op_class_0::MemRead               20646475     18.87%     86.72% # Class of committed instruction
system.cpu.op_class_0::MemWrite              14534243     13.28%    100.00% # Class of committed instruction
system.cpu.op_class_0::FloatMemRead                 0      0.00%    100.00% # Class of committed instruction
system.cpu.op_class_0::FloatMemWrite                0      0.00%    100.00% # Class of committed instruction
system.cpu.op_class_0::IprAccess                    0      0.00%    100.00% # Class of committed instruction
system.cpu.op_class_0::InstPrefetch                 0      0.00%    100.00% # Class of committed instruction
system.cpu.op_class_0::total                109432207                       # Class of committed instruction
system.cpu.tickCycles                       115230897                       # Number of cycles that the object actually ticked
system.cpu.workload.numSyscalls                   115                       # Number of system calls
system.membus.snoop_filter.hit_multi_requests            0                       # Number of requests hitting in the snoop filter with multiple (>1) holders of the requested data.
system.membus.snoop_filter.hit_multi_snoops            0                       # Number of snoops hitting in the snoop filter with multiple (>1) holders of the requested data.
system.membus.snoop_filter.hit_single_requests        12884                       # Number of requests hitting in the snoop filter with a single holder of the requested data.
system.membus.snoop_filter.hit_single_snoops            0                       # Number of snoops hitting in the snoop filter with a single holder of the requested data.
system.membus.snoop_filter.tot_requests         91989                       # Total number of requests made to the snoop filter.
system.membus.snoop_filter.tot_snoops               0                       # Total number of snoops made to the snoop filter.
system.tol2bus.snoop_filter.hit_multi_requests           21                       # Number of requests hitting in the snoop filter with multiple (>1) holders of the requested data.
system.tol2bus.snoop_filter.hit_multi_snoops            4                       # Number of snoops hitting in the snoop filter with multiple (>1) holders of the requested data.
system.tol2bus.snoop_filter.hit_single_requests       493726                       # Number of requests hitting in the snoop filter with a single holder of the requested data.
system.tol2bus.snoop_filter.hit_single_snoops          687                       # Number of snoops hitting in the snoop filter with a single holder of the requested data.
system.tol2bus.snoop_filter.tot_requests       990172                       # Total number of requests made to the snoop filter.
system.tol2bus.snoop_filter.tot_snoops            691                       # Total number of snoops made to the snoop filter.
system.membus.pwrStateResidencyTicks::UNDEFINED  62676848000                       # Cumulative time (in ticks) in various power states
system.membus.trans_dist::ReadResp               7497                       # Transaction distribution
system.membus.trans_dist::WritebackDirty        12668                       # Transaction distribution
system.membus.trans_dist::CleanEvict              215                       # Transaction distribution
system.membus.trans_dist::ReadExReq             71609                       # Transaction distribution
system.membus.trans_dist::ReadExResp            71609                       # Transaction distribution
system.membus.trans_dist::ReadSharedReq          7497                       # Transaction distribution
system.membus.pkt_count_system.l2.mem_side::system.mem_ctrls.port       171095                       # Packet count per connected master and slave (bytes)
system.membus.pkt_count::total                 171095                       # Packet count per connected master and slave (bytes)
system.membus.pkt_size_system.l2.mem_side::system.mem_ctrls.port      2936768                       # Cumulative packet size per connected master and slave (bytes)
system.membus.pkt_size::total                 2936768                       # Cumulative packet size per connected master and slave (bytes)
system.membus.snoops                                0                       # Total snoops (count)
system.membus.snoopTraffic                          0                       # Total snoop traffic (bytes)
system.membus.snoop_fanout::samples             79106                       # Request fanout histogram
system.membus.snoop_fanout::mean                    0                       # Request fanout histogram
system.membus.snoop_fanout::stdev                   0                       # Request fanout histogram
system.membus.snoop_fanout::underflows              0      0.00%      0.00% # Request fanout histogram
system.membus.snoop_fanout::0                   79106    100.00%    100.00% # Request fanout histogram
system.membus.snoop_fanout::1                       0      0.00%    100.00% # Request fanout histogram
system.membus.snoop_fanout::overflows               0      0.00%    100.00% # Request fanout histogram
system.membus.snoop_fanout::min_value               0                       # Request fanout histogram
system.membus.snoop_fanout::max_value               0                       # Request fanout histogram
system.membus.snoop_fanout::total               79106                       # Request fanout histogram
system.membus.respLayer1.occupancy          262348750                       # Layer occupancy (ticks)
system.membus.respLayer1.utilization              0.4                       # Layer utilization (%)
system.membus.reqLayer0.occupancy           136562000                       # Layer occupancy (ticks)
system.membus.reqLayer0.utilization               0.2                       # Layer utilization (%)
system.tol2bus.pwrStateResidencyTicks::UNDEFINED  62676848000                       # Cumulative time (in ticks) in various power states
system.tol2bus.trans_dist::ReadResp            424832                       # Transaction distribution
system.tol2bus.trans_dist::WritebackDirty       100005                       # Transaction distribution
system.tol2bus.trans_dist::WritebackClean       402062                       # Transaction distribution
system.tol2bus.trans_dist::CleanEvict            5227                       # Transaction distribution
system.tol2bus.trans_dist::ReadExReq            71618                       # Transaction distribution
system.tol2bus.trans_dist::ReadExResp           71618                       # Transaction distribution
system.tol2bus.trans_dist::ReadCleanReq        402742                       # Transaction distribution
system.tol2bus.trans_dist::ReadSharedReq        22090                       # Transaction distribution
system.tol2bus.pkt_count_system.cpu.icache.mem_side::system.l2.cpu_side      1207546                       # Packet count per connected master and slave (bytes)
system.tol2bus.pkt_count_system.cpu.dcache.mem_side::system.l2.cpu_side       279076                       # Packet count per connected master and slave (bytes)
system.tol2bus.pkt_count::total               1486622                       # Packet count per connected master and slave (bytes)
system.tol2bus.pkt_size_system.cpu.icache.mem_side::system.l2.cpu_side     25753728                       # Cumulative packet size per connected master and slave (bytes)
system.tol2bus.pkt_size_system.cpu.dcache.mem_side::system.l2.cpu_side      5793440                       # Cumulative packet size per connected master and slave (bytes)
system.tol2bus.pkt_size::total               31547168                       # Cumulative packet size per connected master and slave (bytes)
system.tol2bus.snoops                           13572                       # Total snoops (count)
system.tol2bus.snoopTraffic                    405376                       # Total snoop traffic (bytes)
system.tol2bus.snoop_fanout::samples           510022                       # Request fanout histogram
system.tol2bus.snoop_fanout::mean            0.001412                       # Request fanout histogram
system.tol2bus.snoop_fanout::stdev           0.037754                       # Request fanout histogram
system.tol2bus.snoop_fanout::underflows             0      0.00%      0.00% # Request fanout histogram
system.tol2bus.snoop_fanout::0                 509306     99.86%     99.86% # Request fanout histogram
system.tol2bus.snoop_fanout::1                    712      0.14%    100.00% # Request fanout histogram
system.tol2bus.snoop_fanout::2                      4      0.00%    100.00% # Request fanout histogram
system.tol2bus.snoop_fanout::overflows              0      0.00%    100.00% # Request fanout histogram
system.tol2bus.snoop_fanout::min_value              0                       # Request fanout histogram
system.tol2bus.snoop_fanout::max_value              2                       # Request fanout histogram
system.tol2bus.snoop_fanout::total             510022                       # Request fanout histogram
system.tol2bus.reqLayer0.occupancy          739785500                       # Layer occupancy (ticks)
system.tol2bus.reqLayer0.utilization              1.2                       # Layer utilization (%)
system.tol2bus.respLayer1.occupancy          93708998                       # Layer occupancy (ticks)
system.tol2bus.respLayer1.utilization             0.1                       # Layer utilization (%)
system.tol2bus.respLayer0.occupancy         402742499                       # Layer occupancy (ticks)
system.tol2bus.respLayer0.utilization             0.6                       # Layer utilization (%)
system.voltage_domain.voltage                       1                       # Voltage in Volts
system.clk_domain.clock                          1000                       # Clock period in ticks
system.l2.pwrStateResidencyTicks::UNDEFINED  62676848000                       # Cumulative time (in ticks) in various power states
system.l2.demand_hits::.cpu.inst               401941                       # number of demand (read+write) hits
system.l2.demand_hits::.cpu.data                15400                       # number of demand (read+write) hits
system.l2.demand_hits::total                   417341                       # number of demand (read+write) hits
system.l2.overall_hits::.cpu.inst              401941                       # number of overall hits
system.l2.overall_hits::.cpu.data               15400                       # number of overall hits
system.l2.overall_hits::total                  417341                       # number of overall hits
system.l2.demand_misses::.cpu.inst                801                       # number of demand (read+write) misses
system.l2.demand_misses::.cpu.data              78308                       # number of demand (read+write) misses
system.l2.demand_misses::total                  79109                       # number of demand (read+write) misses
system.l2.overall_misses::.cpu.inst               801                       # number of overall misses
system.l2.overall_misses::.cpu.data             78308                       # number of overall misses
system.l2.overall_misses::total                 79109                       # number of overall misses
system.l2.demand_miss_latency::.cpu.inst     60351000                       # number of demand (read+write) miss cycles
system.l2.demand_miss_latency::.cpu.data   6150471000                       # number of demand (read+write) miss cycles
system.l2.demand_miss_latency::total       6210822000                       # number of demand (read+write) miss cycles
system.l2.overall_miss_latency::.cpu.inst     60351000                       # number of overall miss cycles
system.l2.overall_miss_latency::.cpu.data   6150471000                       # number of overall miss cycles
system.l2.overall_miss_latency::total      6210822000                       # number of overall miss cycles
system.l2.demand_accesses::.cpu.inst           402742                       # number of demand (read+write) accesses
system.l2.demand_accesses::.cpu.data            93708                       # number of demand (read+write) accesses
system.l2.demand_accesses::total               496450                       # number of demand (read+write) accesses
system.l2.overall_accesses::.cpu.inst          402742                       # number of overall (read+write) accesses
system.l2.overall_accesses::.cpu.data           93708                       # number of overall (read+write) accesses
system.l2.overall_accesses::total              496450                       # number of overall (read+write) accesses
system.l2.demand_miss_rate::.cpu.inst        0.001989                       # miss rate for demand accesses
system.l2.demand_miss_rate::.cpu.data        0.835660                       # miss rate for demand accesses
system.l2.demand_miss_rate::total            0.159349                       # miss rate for demand accesses
system.l2.overall_miss_rate::.cpu.inst       0.001989                       # miss rate for overall accesses
system.l2.overall_miss_rate::.cpu.data       0.835660                       # miss rate for overall accesses
system.l2.overall_miss_rate::total           0.159349                       # miss rate for overall accesses
system.l2.demand_avg_miss_latency::.cpu.inst 75344.569288                       # average overall miss latency
system.l2.demand_avg_miss_latency::.cpu.data 78542.051898                       # average overall miss latency
system.l2.demand_avg_miss_latency::total 78509.676522                       # average overall miss latency
system.l2.overall_avg_miss_latency::.cpu.inst 75344.569288                       # average overall miss latency
system.l2.overall_avg_miss_latency::.cpu.data 78542.051898                       # average overall miss latency
system.l2.overall_avg_miss_latency::total 78509.676522                       # average overall miss latency
system.l2.blocked_cycles::no_mshrs                  0                       # number of cycles access was blocked
system.l2.blocked_cycles::no_targets                0                       # number of cycles access was blocked
system.l2.blocked::no_mshrs                         0                       # number of cycles access was blocked
system.l2.blocked::no_targets                       0                       # number of cycles access was blocked
system.l2.avg_blocked_cycles::no_mshrs            nan                       # average number of cycles each access was blocked
system.l2.avg_blocked_cycles::no_targets          nan                       # average number of cycles each access was blocked
system.l2.writebacks::.writebacks               12668                       # number of writebacks
system.l2.writebacks::total                     12668                       # number of writebacks
system.l2.demand_mshr_hits::.cpu.inst               1                       # number of demand (read+write) MSHR hits
system.l2.demand_mshr_hits::.cpu.data               2                       # number of demand (read+write) MSHR hits
system.l2.demand_mshr_hits::total                   3                       # number of demand (read+write) MSHR hits
system.l2.overall_mshr_hits::.cpu.inst              1                       # number of overall MSHR hits
system.l2.overall_mshr_hits::.cpu.data              2                       # number of overall MSHR hits
system.l2.overall_mshr_hits::total                  3                       # number of overall MSHR hits
system.l2.demand_mshr_misses::.cpu.inst           800                       # number of demand (read+write) MSHR misses
system.l2.demand_mshr_misses::.cpu.data         78306                       # number of demand (read+write) MSHR misses
system.l2.demand_mshr_misses::total             79106                       # number of demand (read+write) MSHR misses
system.l2.overall_mshr_misses::.cpu.inst          800                       # number of overall MSHR misses
system.l2.overall_mshr_misses::.cpu.data        78306                       # number of overall MSHR misses
system.l2.overall_mshr_misses::total            79106                       # number of overall MSHR misses
system.l2.demand_mshr_miss_latency::.cpu.inst     52319500                       # number of demand (read+write) MSHR miss cycles
system.l2.demand_mshr_miss_latency::.cpu.data   5367275000                       # number of demand (read+write) MSHR miss cycles
system.l2.demand_mshr_miss_latency::total   5419594500                       # number of demand (read+write) MSHR miss cycles
system.l2.overall_mshr_miss_latency::.cpu.inst     52319500                       # number of overall MSHR miss cycles
system.l2.overall_mshr_miss_latency::.cpu.data   5367275000                       # number of overall MSHR miss cycles
system.l2.overall_mshr_miss_latency::total   5419594500                       # number of overall MSHR miss cycles
system.l2.demand_mshr_miss_rate::.cpu.inst     0.001986                       # mshr miss rate for demand accesses
system.l2.demand_mshr_miss_rate::.cpu.data     0.835638                       # mshr miss rate for demand accesses
system.l2.demand_mshr_miss_rate::total       0.159343                       # mshr miss rate for demand accesses
system.l2.overall_mshr_miss_rate::.cpu.inst     0.001986                       # mshr miss rate for overall accesses
system.l2.overall_mshr_miss_rate::.cpu.data     0.835638                       # mshr miss rate for overall accesses
system.l2.overall_mshr_miss_rate::total      0.159343                       # mshr miss rate for overall accesses
system.l2.demand_avg_mshr_miss_latency::.cpu.inst 65399.375000                       # average overall mshr miss latency
system.l2.demand_avg_mshr_miss_latency::.cpu.data 68542.321150                       # average overall mshr miss latency
system.l2.demand_avg_mshr_miss_latency::total 68510.536495                       # average overall mshr miss latency
system.l2.overall_avg_mshr_miss_latency::.cpu.inst 65399.375000                       # average overall mshr miss latency
system.l2.overall_avg_mshr_miss_latency::.cpu.data 68542.321150                       # average overall mshr miss latency
system.l2.overall_avg_mshr_miss_latency::total 68510.536495                       # average overall mshr miss latency
system.l2.replacements                          13572                       # number of replacements
system.l2.WritebackDirty_hits::.writebacks        87337                       # number of WritebackDirty hits
system.l2.WritebackDirty_hits::total            87337                       # number of WritebackDirty hits
system.l2.WritebackDirty_accesses::.writebacks        87337                       # number of WritebackDirty accesses(hits+misses)
system.l2.WritebackDirty_accesses::total        87337                       # number of WritebackDirty accesses(hits+misses)
system.l2.WritebackClean_hits::.writebacks       402053                       # number of WritebackClean hits
system.l2.WritebackClean_hits::total           402053                       # number of WritebackClean hits
system.l2.WritebackClean_accesses::.writebacks       402053                       # number of WritebackClean accesses(hits+misses)
system.l2.WritebackClean_accesses::total       402053                       # number of WritebackClean accesses(hits+misses)
system.l2.CleanEvict_mshr_misses::.writebacks            2                       # number of CleanEvict MSHR misses
system.l2.CleanEvict_mshr_misses::total             2                       # number of CleanEvict MSHR misses
system.l2.CleanEvict_mshr_miss_rate::.writebacks          inf                       # mshr miss rate for CleanEvict accesses
system.l2.CleanEvict_mshr_miss_rate::total          inf                       # mshr miss rate for CleanEvict accesses
system.l2.ReadExReq_hits::.cpu.data                 9                       # number of ReadExReq hits
system.l2.ReadExReq_hits::total                     9                       # number of ReadExReq hits
system.l2.ReadExReq_misses::.cpu.data           71609                       # number of ReadExReq misses
system.l2.ReadExReq_misses::total               71609                       # number of ReadExReq misses
system.l2.ReadExReq_miss_latency::.cpu.data   5604814500                       # number of ReadExReq miss cycles
system.l2.ReadExReq_miss_latency::total    5604814500                       # number of ReadExReq miss cycles
system.l2.ReadExReq_accesses::.cpu.data         71618                       # number of ReadExReq accesses(hits+misses)
system.l2.ReadExReq_accesses::total             71618                       # number of ReadExReq accesses(hits+misses)
system.l2.ReadExReq_miss_rate::.cpu.data     0.999874                       # miss rate for ReadExReq accesses
system.l2.ReadExReq_miss_rate::total         0.999874                       # miss rate for ReadExReq accesses
system.l2.ReadExReq_avg_miss_latency::.cpu.data 78269.693754                       # average ReadExReq miss latency
system.l2.ReadExReq_avg_miss_latency::total 78269.693754                       # average ReadExReq miss latency
system.l2.ReadExReq_mshr_misses::.cpu.data        71609                       # number of ReadExReq MSHR misses
system.l2.ReadExReq_mshr_misses::total          71609                       # number of ReadExReq MSHR misses
system.l2.ReadExReq_mshr_miss_latency::.cpu.data   4888724500                       # number of ReadExReq MSHR miss cycles
system.l2.ReadExReq_mshr_miss_latency::total   4888724500                       # number of ReadExReq MSHR miss cycles
system.l2.ReadExReq_mshr_miss_rate::.cpu.data     0.999874                       # mshr miss rate for ReadExReq accesses
system.l2.ReadExReq_mshr_miss_rate::total     0.999874                       # mshr miss rate for ReadExReq accesses
system.l2.ReadExReq_avg_mshr_miss_latency::.cpu.data 68269.693754                       # average ReadExReq mshr miss latency
system.l2.ReadExReq_avg_mshr_miss_latency::total 68269.693754                       # average ReadExReq mshr miss latency
system.l2.ReadCleanReq_hits::.cpu.inst         401941                       # number of ReadCleanReq hits
system.l2.ReadCleanReq_hits::total             401941                       # number of ReadCleanReq hits
system.l2.ReadCleanReq_misses::.cpu.inst          801                       # number of ReadCleanReq misses
system.l2.ReadCleanReq_misses::total              801                       # number of ReadCleanReq misses
system.l2.ReadCleanReq_miss_latency::.cpu.inst     60351000                       # number of ReadCleanReq miss cycles
system.l2.ReadCleanReq_miss_latency::total     60351000                       # number of ReadCleanReq miss cycles
system.l2.ReadCleanReq_accesses::.cpu.inst       402742                       # number of ReadCleanReq accesses(hits+misses)
system.l2.ReadCleanReq_accesses::total         402742                       # number of ReadCleanReq accesses(hits+misses)
system.l2.ReadCleanReq_miss_rate::.cpu.inst     0.001989                       # miss rate for ReadCleanReq accesses
system.l2.ReadCleanReq_miss_rate::total      0.001989                       # miss rate for ReadCleanReq accesses
system.l2.ReadCleanReq_avg_miss_latency::.cpu.inst 75344.569288                       # average ReadCleanReq miss latency
system.l2.ReadCleanReq_avg_miss_latency::total 75344.569288                       # average ReadCleanReq miss latency
system.l2.ReadCleanReq_mshr_hits::.cpu.inst            1                       # number of ReadCleanReq MSHR hits
system.l2.ReadCleanReq_mshr_hits::total             1                       # number of ReadCleanReq MSHR hits
system.l2.ReadCleanReq_mshr_misses::.cpu.inst          800                       # number of ReadCleanReq MSHR misses
system.l2.ReadCleanReq_mshr_misses::total          800                       # number of ReadCleanReq MSHR misses
system.l2.ReadCleanReq_mshr_miss_latency::.cpu.inst     52319500                       # number of ReadCleanReq MSHR miss cycles
system.l2.ReadCleanReq_mshr_miss_latency::total     52319500                       # number of ReadCleanReq MSHR miss cycles
system.l2.ReadCleanReq_mshr_miss_rate::.cpu.inst     0.001986                       # mshr miss rate for ReadCleanReq accesses
system.l2.ReadCleanReq_mshr_miss_rate::total     0.001986                       # mshr miss rate for ReadCleanReq accesses
system.l2.ReadCleanReq_avg_mshr_miss_latency::.cpu.inst 65399.375000                       # average ReadCleanReq mshr miss latency
system.l2.ReadCleanReq_avg_mshr_miss_latency::total 65399.375000                       # average ReadCleanReq mshr miss latency
system.l2.ReadSharedReq_hits::.cpu.data         15391                       # number of ReadSharedReq hits
system.l2.ReadSharedReq_hits::total             15391                       # number of ReadSharedReq hits
system.l2.ReadSharedReq_misses::.cpu.data         6699                       # number of ReadSharedReq misses
system.l2.ReadSharedReq_misses::total            6699                       # number of ReadSharedReq misses
system.l2.ReadSharedReq_miss_latency::.cpu.data    545656500                       # number of ReadSharedReq miss cycles
system.l2.ReadSharedReq_miss_latency::total    545656500                       # number of ReadSharedReq miss cycles
system.l2.ReadSharedReq_accesses::.cpu.data        22090                       # number of ReadSharedReq accesses(hits+misses)
system.l2.ReadSharedReq_accesses::total         22090                       # number of ReadSharedReq accesses(hits+misses)
system.l2.ReadSharedReq_miss_rate::.cpu.data     0.303259                       # miss rate for ReadSharedReq accesses
system.l2.ReadSharedReq_miss_rate::total     0.303259                       # miss rate for ReadSharedReq accesses
system.l2.ReadSharedReq_avg_miss_latency::.cpu.data 81453.425884                       # average ReadSharedReq miss latency
system.l2.ReadSharedReq_avg_miss_latency::total 81453.425884                       # average ReadSharedReq miss latency
system.l2.ReadSharedReq_mshr_hits::.cpu.data            2                       # number of ReadSharedReq MSHR hits
system.l2.ReadSharedReq_mshr_hits::total            2                       # number of ReadSharedReq MSHR hits
system.l2.ReadSharedReq_mshr_misses::.cpu.data         6697                       # number of ReadSharedReq MSHR misses
system.l2.ReadSharedReq_mshr_misses::total         6697                       # number of ReadSharedReq MSHR misses
system.l2.ReadSharedReq_mshr_miss_latency::.cpu.data    478550500                       # number of ReadSharedReq MSHR miss cycles
system.l2.ReadSharedReq_mshr_miss_latency::total    478550500                       # number of ReadSharedReq MSHR miss cycles
system.l2.ReadSharedReq_mshr_miss_rate::.cpu.data     0.303169                       # mshr miss rate for ReadSharedReq accesses
system.l2.ReadSharedReq_mshr_miss_rate::total     0.303169                       # mshr miss rate for ReadSharedReq accesses
system.l2.ReadSharedReq_avg_mshr_miss_latency::.cpu.data 71457.443631                       # average ReadSharedReq mshr miss latency
system.l2.ReadSharedReq_avg_mshr_miss_latency::total 71457.443631                       # average ReadSharedReq mshr miss latency
system.l2.tags.pwrStateResidencyTicks::UNDEFINED  62676848000                       # Cumulative time (in ticks) in various power states
system.l2.tags.tagsinuse                 51488.628850                       # Cycle average of tags in use
system.l2.tags.total_refs                      990146                       # Total number of references to valid blocks.
system.l2.tags.sampled_refs                     79108                       # Sample count of references to valid blocks.
system.l2.tags.avg_refs                     12.516383                       # Average number of references to valid blocks.
system.l2.tags.warmup_cycle                     77000                       # Cycle when the warmup percentage was hit.
system.l2.tags.occ_blocks::.writebacks       0.361762                       # Average occupied blocks per requestor
system.l2.tags.occ_blocks::.cpu.inst       492.682247                       # Average occupied blocks per requestor
system.l2.tags.occ_blocks::.cpu.data     50995.584841                       # Average occupied blocks per requestor
system.l2.tags.occ_percent::.writebacks      0.000006                       # Average percentage of cache occupancy
system.l2.tags.occ_percent::.cpu.inst        0.007518                       # Average percentage of cache occupancy
system.l2.tags.occ_percent::.cpu.data        0.778131                       # Average percentage of cache occupancy
system.l2.tags.occ_percent::total            0.785654                       # Average percentage of cache occupancy
system.l2.tags.occ_task_id_blocks::1024         65536                       # Occupied blocks per task id
system.l2.tags.age_task_id_blocks_1024::0            6                       # Occupied blocks per task id
system.l2.tags.age_task_id_blocks_1024::1           64                       # Occupied blocks per task id
system.l2.tags.age_task_id_blocks_1024::2          690                       # Occupied blocks per task id
system.l2.tags.age_task_id_blocks_1024::3         6643                       # Occupied blocks per task id
system.l2.tags.age_task_id_blocks_1024::4        58133                       # Occupied blocks per task id
system.l2.tags.occ_task_id_percent::1024            1                       # Percentage of cache occupancy per task id
system.l2.tags.tag_accesses                   8000316                       # Number of tag accesses
system.l2.tags.data_accesses                  8000316                       # Number of data accesses
system.cpu_voltage_domain.voltage                   1                       # Voltage in Volts
system.mem_ctrls.pwrStateResidencyTicks::UNDEFINED  62676848000                       # Cumulative time (in ticks) in various power states
system.mem_ctrls.bytes_read::.cpu.inst          25600                       # Number of bytes read from this memory
system.mem_ctrls.bytes_read::.cpu.data        2505792                       # Number of bytes read from this memory
system.mem_ctrls.bytes_read::total            2531392                       # Number of bytes read from this memory
system.mem_ctrls.bytes_inst_read::.cpu.inst        25600                       # Number of instructions bytes read from this memory
system.mem_ctrls.bytes_inst_read::total         25600                       # Number of instructions bytes read from this memory
system.mem_ctrls.bytes_written::.writebacks       405376                       # Number of bytes written to this memory
system.mem_ctrls.bytes_written::total          405376                       # Number of bytes written to this memory
system.mem_ctrls.num_reads::.cpu.inst             800                       # Number of read requests responded to by this memory
system.mem_ctrls.num_reads::.cpu.data           78306                       # Number of read requests responded to by this memory
system.mem_ctrls.num_reads::total               79106                       # Number of read requests responded to by this memory
system.mem_ctrls.num_writes::.writebacks        12668                       # Number of write requests responded to by this memory
system.mem_ctrls.num_writes::total              12668                       # Number of write requests responded to by this memory
system.mem_ctrls.bw_read::.cpu.inst            408444                       # Total read bandwidth from this memory (bytes/s)
system.mem_ctrls.bw_read::.cpu.data          39979547                       # Total read bandwidth from this memory (bytes/s)
system.mem_ctrls.bw_read::total              40387991                       # Total read bandwidth from this memory (bytes/s)
system.mem_ctrls.bw_inst_read::.cpu.inst       408444                       # Instruction read bandwidth from this memory (bytes/s)
system.mem_ctrls.bw_inst_read::total           408444                       # Instruction read bandwidth from this memory (bytes/s)
system.mem_ctrls.bw_write::.writebacks        6467715                       # Write bandwidth from this memory (bytes/s)
system.mem_ctrls.bw_write::total              6467715                       # Write bandwidth from this memory (bytes/s)
system.mem_ctrls.bw_total::.writebacks        6467715                       # Total bandwidth to/from this memory (bytes/s)
system.mem_ctrls.bw_total::.cpu.inst           408444                       # Total bandwidth to/from this memory (bytes/s)
system.mem_ctrls.bw_total::.cpu.data         39979547                       # Total bandwidth to/from this memory (bytes/s)
system.mem_ctrls.bw_total::total             46855707                       # Total bandwidth to/from this memory (bytes/s)
system.mem_ctrls.avgPriority_.writebacks::samples      8066.00                       # Average QoS priority value for accepted requests
system.mem_ctrls.avgPriority_.cpu.inst::samples       800.00                       # Average QoS priority value for accepted requests
system.mem_ctrls.avgPriority_.cpu.data::samples     78305.00                       # Average QoS priority value for accepted requests
system.mem_ctrls.priorityMinLatency      0.000000018750                       # per QoS priority minimum request to response latency (s)
system.mem_ctrls.priorityMaxLatency      0.018848636500                       # per QoS priority maximum request to response latency (s)
system.mem_ctrls.numReadWriteTurnArounds          446                       # Number of turnarounds from READ to WRITE
system.mem_ctrls.numWriteReadTurnArounds          446                       # Number of turnarounds from WRITE to READ
system.mem_ctrls.numStayReadState              186777                       # Number of times bus staying in READ state
system.mem_ctrls.numStayWriteState               7620                       # Number of times bus staying in WRITE state
system.mem_ctrls.readReqs                       79106                       # Number of read requests accepted
system.mem_ctrls.writeReqs                      12668                       # Number of write requests accepted
system.mem_ctrls.readBursts                     79106                       # Number of DRAM read bursts, including those serviced by the write queue
system.mem_ctrls.writeBursts                    12668                       # Number of DRAM write bursts, including those merged in the write queue
system.mem_ctrls.servicedByWrQ                      1                       # Number of DRAM read bursts serviced by the write queue
system.mem_ctrls.mergedWrBursts                  4602                       # Number of DRAM write bursts merged with an existing one
system.mem_ctrls.neitherReadNorWriteReqs            0                       # Number of requests that are neither read nor write
system.mem_ctrls.perBankRdBursts::0              4923                       # Per bank write bursts
system.mem_ctrls.perBankRdBursts::1              4695                       # Per bank write bursts
system.mem_ctrls.perBankRdBursts::2              4660                       # Per bank write bursts
system.mem_ctrls.perBankRdBursts::3              5148                       # Per bank write bursts
system.mem_ctrls.perBankRdBursts::4              5305                       # Per bank write bursts
system.mem_ctrls.perBankRdBursts::5              4890                       # Per bank write bursts
system.mem_ctrls.perBankRdBursts::6              4882                       # Per bank write bursts
system.mem_ctrls.perBankRdBursts::7              4924                       # Per bank write bursts
system.mem_ctrls.perBankRdBursts::8              4922                       # Per bank write bursts
system.mem_ctrls.perBankRdBursts::9              4968                       # Per bank write bursts
system.mem_ctrls.perBankRdBursts::10             4942                       # Per bank write bursts
system.mem_ctrls.perBankRdBursts::11             4968                       # Per bank write bursts
system.mem_ctrls.perBankRdBursts::12             4957                       # Per bank write bursts
system.mem_ctrls.perBankRdBursts::13             4911                       # Per bank write bursts
system.mem_ctrls.perBankRdBursts::14             5054                       # Per bank write bursts
system.mem_ctrls.perBankRdBursts::15             4956                       # Per bank write bursts
system.mem_ctrls.perBankWrBursts::0               464                       # Per bank write bursts
system.mem_ctrls.perBankWrBursts::1               391                       # Per bank write bursts
system.mem_ctrls.perBankWrBursts::2               383                       # Per bank write bursts
system.mem_ctrls.perBankWrBursts::3               615                       # Per bank write bursts
system.mem_ctrls.perBankWrBursts::4               792                       # Per bank write bursts
system.mem_ctrls.perBankWrBursts::5               517                       # Per bank write bursts
system.mem_ctrls.perBankWrBursts::6               515                       # Per bank write bursts
system.mem_ctrls.perBankWrBursts::7               465                       # Per bank write bursts
system.mem_ctrls.perBankWrBursts::8               451                       # Per bank write bursts
system.mem_ctrls.perBankWrBursts::9               453                       # Per bank write bursts
system.mem_ctrls.perBankWrBursts::10              448                       # Per bank write bursts
system.mem_ctrls.perBankWrBursts::11              460                       # Per bank write bursts
system.mem_ctrls.perBankWrBursts::12              517                       # Per bank write bursts
system.mem_ctrls.perBankWrBursts::13              507                       # Per bank write bursts
system.mem_ctrls.perBankWrBursts::14              540                       # Per bank write bursts
system.mem_ctrls.perBankWrBursts::15              521                       # Per bank write bursts
system.mem_ctrls.avgRdQLen                       1.04                       # Average read queue length when enqueuing
system.mem_ctrls.avgWrQLen                      13.14                       # Average write queue length when enqueuing
system.mem_ctrls.totQLat                    688308500                       # Total ticks spent queuing
system.mem_ctrls.totBusLat                  395525000                       # Total ticks spent in databus transfers
system.mem_ctrls.totMemAccLat              2171527250                       # Total ticks spent from burst creation until serviced by the DRAM
system.mem_ctrls.avgQLat                      8701.20                       # Average queueing delay per DRAM burst
system.mem_ctrls.avgBusLat                    5000.00                       # Average bus latency per DRAM burst
system.mem_ctrls.avgMemAccLat                27451.20                       # Average memory access latency per DRAM burst
system.mem_ctrls.numRdRetry                         0                       # Number of times read queue was full causing retry
system.mem_ctrls.numWrRetry                         0                       # Number of times write queue was full causing retry
system.mem_ctrls.readRowHits                    65612                       # Number of row buffer hits during reads
system.mem_ctrls.writeRowHits                    6865                       # Number of row buffer hits during writes
system.mem_ctrls.readRowHitRate                 82.94                       # Row buffer hit rate for reads
system.mem_ctrls.writeRowHitRate                85.11                       # Row buffer hit rate for writes
system.mem_ctrls.readPktSize::0                     0                       # Read request sizes (log2)
system.mem_ctrls.readPktSize::1                     0                       # Read request sizes (log2)
system.mem_ctrls.readPktSize::2                     0                       # Read request sizes (log2)
system.mem_ctrls.readPktSize::3                     0                       # Read request sizes (log2)
system.mem_ctrls.readPktSize::4                     0                       # Read request sizes (log2)
system.mem_ctrls.readPktSize::5                 79106                       # Read request sizes (log2)
system.mem_ctrls.readPktSize::6                     0                       # Read request sizes (log2)
system.mem_ctrls.writePktSize::0                    0                       # Write request sizes (log2)
system.mem_ctrls.writePktSize::1                    0                       # Write request sizes (log2)
system.mem_ctrls.writePktSize::2                    0                       # Write request sizes (log2)
system.mem_ctrls.writePktSize::3                    0                       # Write request sizes (log2)
system.mem_ctrls.writePktSize::4                    0                       # Write request sizes (log2)
system.mem_ctrls.writePktSize::5                12668                       # Write request sizes (log2)
system.mem_ctrls.writePktSize::6                    0                       # Write request sizes (log2)
system.mem_ctrls.rdQLenPdf::0                   69792                       # What read queue length does an incoming req see
system.mem_ctrls.rdQLenPdf::1                    9295                       # What read queue length does an incoming req see
system.mem_ctrls.rdQLenPdf::2                      18                       # What read queue length does an incoming req see
system.mem_ctrls.rdQLenPdf::3                       0                       # What read queue length does an incoming req see
system.mem_ctrls.rdQLenPdf::4                       0                       # What read queue length does an incoming req see
system.mem_ctrls.rdQLenPdf::5                       0                       # What read queue length does an incoming req see
system.mem_ctrls.rdQLenPdf::6                       0                       # What read queue length does an incoming req see
system.mem_ctrls.rdQLenPdf::7                       0                       # What read queue length does an incoming req see
system.mem_ctrls.rdQLenPdf::8                       0                       # What read queue length does an incoming req see
system.mem_ctrls.rdQLenPdf::9                       0                       # What read queue length does an incoming req see
system.mem_ctrls.rdQLenPdf::10                      0                       # What read queue length does an incoming req see
system.mem_ctrls.rdQLenPdf::11                      0                       # What read queue length does an incoming req see
system.mem_ctrls.rdQLenPdf::12                      0                       # What read queue length does an incoming req see
system.mem_ctrls.rdQLenPdf::13                      0                       # What read queue length does an incoming req see
system.mem_ctrls.rdQLenPdf::14                      0                       # What read queue length does an incoming req see
system.mem_ctrls.rdQLenPdf::15                      0                       # What read queue length does an incoming req see
system.mem_ctrls.rdQLenPdf::16                      0                       # What read queue length does an incoming req see
system.mem_ctrls.rdQLenPdf::17                      0                       # What read queue length does an incoming req see
system.mem_ctrls.rdQLenPdf::18                      0                       # What read queue length does an incoming req see
system.mem_ctrls.rdQLenPdf::19                      0                       # What read queue length does an incoming req see
system.mem_ctrls.rdQLenPdf::20                      0                       # What read queue length does an incoming req see
system.mem_ctrls.rdQLenPdf::21                      0                       # What read queue length does an incoming req see
system.mem_ctrls.rdQLenPdf::22                      0                       # What read queue length does an incoming req see
system.mem_ctrls.rdQLenPdf::23                      0                       # What read queue length does an incoming req see
system.mem_ctrls.rdQLenPdf::24                      0                       # What read queue length does an incoming req see
system.mem_ctrls.rdQLenPdf::25                      0                       # What read queue length does an incoming req see
system.mem_ctrls.rdQLenPdf::26                      0                       # What read queue length does an incoming req see
system.mem_ctrls.rdQLenPdf::27                      0                       # What read queue length does an incoming req see
system.mem_ctrls.rdQLenPdf::28                      0                       # What read queue length does an incoming req see
system.mem_ctrls.rdQLenPdf::29                      0                       # What read queue length does an incoming req see
system.mem_ctrls.rdQLenPdf::30                      0                       # What read queue length does an incoming req see
system.mem_ctrls.rdQLenPdf::31                      0                       # What read queue length does an incoming req see
system.mem_ctrls.wrQLenPdf::0                       1                       # What write queue length does an incoming req see
system.mem_ctrls.wrQLenPdf::1                       1                       # What write queue length does an incoming req see
system.mem_ctrls.wrQLenPdf::2                       1                       # What write queue length does an incoming req see
system.mem_ctrls.wrQLenPdf::3                       1                       # What write queue length does an incoming req see
system.mem_ctrls.wrQLenPdf::4                       1                       # What write queue length does an incoming req see
system.mem_ctrls.wrQLenPdf::5                       1                       # What write queue length does an incoming req see
system.mem_ctrls.wrQLenPdf::6                       1                       # What write queue length does an incoming req see
system.mem_ctrls.wrQLenPdf::7                       1                       # What write queue length does an incoming req see
system.mem_ctrls.wrQLenPdf::8                       1                       # What write queue length does an incoming req see
system.mem_ctrls.wrQLenPdf::9                       1                       # What write queue length does an incoming req see
system.mem_ctrls.wrQLenPdf::10                      1                       # What write queue length does an incoming req see
system.mem_ctrls.wrQLenPdf::11                      1                       # What write queue length does an incoming req see
system.mem_ctrls.wrQLenPdf::12                      1                       # What write queue length does an incoming req see
system.mem_ctrls.wrQLenPdf::13                      1                       # What write queue length does an incoming req see
system.mem_ctrls.wrQLenPdf::14                      1                       # What write queue length does an incoming req see
system.mem_ctrls.wrQLenPdf::15                    447                       # What write queue length does an incoming req see
system.mem_ctrls.wrQLenPdf::16                    447                       # What write queue length does an incoming req see
system.mem_ctrls.wrQLenPdf::17                    447                       # What write queue length does an incoming req see
system.mem_ctrls.wrQLenPdf::18                    447                       # What write queue length does an incoming req see
system.mem_ctrls.wrQLenPdf::19                    447                       # What write queue length does an incoming req see
system.mem_ctrls.wrQLenPdf::20                    447                       # What write queue length does an incoming req see
system.mem_ctrls.wrQLenPdf::21                    447                       # What write queue length does an incoming req see
system.mem_ctrls.wrQLenPdf::22                    447                       # What write queue length does an incoming req see
system.mem_ctrls.wrQLenPdf::23                    451                       # What write queue length does an incoming req see
system.mem_ctrls.wrQLenPdf::24                    447                       # What write queue length does an incoming req see
system.mem_ctrls.wrQLenPdf::25                    448                       # What write queue length does an incoming req see
system.mem_ctrls.wrQLenPdf::26                    448                       # What write queue length does an incoming req see
system.mem_ctrls.wrQLenPdf::27                    447                       # What write queue length does an incoming req see
system.mem_ctrls.wrQLenPdf::28                    449                       # What write queue length does an incoming req see
system.mem_ctrls.wrQLenPdf::29                    447                       # What write queue length does an incoming req see
system.mem_ctrls.wrQLenPdf::30                    446                       # What write queue length does an incoming req see
system.mem_ctrls.wrQLenPdf::31                    446                       # What write queue length does an incoming req see
system.mem_ctrls.wrQLenPdf::32                    446                       # What write queue length does an incoming req see
system.mem_ctrls.wrQLenPdf::33                      0                       # What write queue length does an incoming req see
system.mem_ctrls.wrQLenPdf::34                      0                       # What write queue length does an incoming req see
system.mem_ctrls.wrQLenPdf::35                      0                       # What write queue length does an incoming req see
system.mem_ctrls.wrQLenPdf::36                      0                       # What write queue length does an incoming req see
system.mem_ctrls.wrQLenPdf::37                      0                       # What write queue length does an incoming req see
system.mem_ctrls.wrQLenPdf::38                      0                       # What write queue length does an incoming req see
system.mem_ctrls.wrQLenPdf::39                      0                       # What write queue length does an incoming req see
system.mem_ctrls.wrQLenPdf::40                      0                       # What write queue length does an incoming req see
system.mem_ctrls.wrQLenPdf::41                      0                       # What write queue length does an incoming req see
system.mem_ctrls.wrQLenPdf::42                      0                       # What write queue length does an incoming req see
system.mem_ctrls.wrQLenPdf::43                      0                       # What write queue length does an incoming req see
system.mem_ctrls.wrQLenPdf::44                      0                       # What write queue length does an incoming req see
system.mem_ctrls.wrQLenPdf::45                      0                       # What write queue length does an incoming req see
system.mem_ctrls.wrQLenPdf::46                      0                       # What write queue length does an incoming req see
system.mem_ctrls.wrQLenPdf::47                      0                       # What write queue length does an incoming req see
system.mem_ctrls.wrQLenPdf::48                      0                       # What write queue length does an incoming req see
system.mem_ctrls.wrQLenPdf::49                      0                       # What write queue length does an incoming req see
system.mem_ctrls.wrQLenPdf::50                      0                       # What write queue length does an incoming req see
system.mem_ctrls.wrQLenPdf::51                      0                       # What write queue length does an incoming req see
system.mem_ctrls.wrQLenPdf::52                      0                       # What write queue length does an incoming req see
system.mem_ctrls.wrQLenPdf::53                      0                       # What write queue length does an incoming req see
system.mem_ctrls.wrQLenPdf::54                      0                       # What write queue length does an incoming req see
system.mem_ctrls.wrQLenPdf::55                      0                       # What write queue length does an incoming req see
system.mem_ctrls.wrQLenPdf::56                      0                       # What write queue length does an incoming req see
system.mem_ctrls.wrQLenPdf::57                      0                       # What write queue length does an incoming req see
system.mem_ctrls.wrQLenPdf::58                      0                       # What write queue length does an incoming req see
system.mem_ctrls.wrQLenPdf::59                      0                       # What write queue length does an incoming req see
system.mem_ctrls.wrQLenPdf::60                      0                       # What write queue length does an incoming req see
system.mem_ctrls.wrQLenPdf::61                      0                       # What write queue length does an incoming req see
system.mem_ctrls.wrQLenPdf::62                      0                       # What write queue length does an incoming req see
system.mem_ctrls.wrQLenPdf::63                      0                       # What write queue length does an incoming req see
system.mem_ctrls.bytesPerActivate::samples        14666                       # Bytes accessed per row activation
system.mem_ctrls.bytesPerActivate::mean    380.268921                       # Bytes accessed per row activation
system.mem_ctrls.bytesPerActivate::gmean   291.809049                       # Bytes accessed per row activation
system.mem_ctrls.bytesPerActivate::stdev   252.662129                       # Bytes accessed per row activation
system.mem_ctrls.bytesPerActivate::0-127         2208     15.06%     15.06% # Bytes accessed per row activation
system.mem_ctrls.bytesPerActivate::128-255         1769     12.06%     27.12% # Bytes accessed per row activation
system.mem_ctrls.bytesPerActivate::256-383         3159     21.54%     48.66% # Bytes accessed per row activation
system.mem_ctrls.bytesPerActivate::384-511         3920     26.73%     75.39% # Bytes accessed per row activation
system.mem_ctrls.bytesPerActivate::512-639         1568     10.69%     86.08% # Bytes accessed per row activation
system.mem_ctrls.bytesPerActivate::640-767          691      4.71%     90.79% # Bytes accessed per row activation
system.mem_ctrls.bytesPerActivate::768-895           67      0.46%     91.25% # Bytes accessed per row activation
system.mem_ctrls.bytesPerActivate::896-1023          517      3.53%     94.77% # Bytes accessed per row activation
system.mem_ctrls.bytesPerActivate::1024-1151          767      5.23%    100.00% # Bytes accessed per row activation
system.mem_ctrls.bytesPerActivate::total        14666                       # Bytes accessed per row activation
system.mem_ctrls.rdPerTurnAround::samples          446                       # Reads before turning the bus around for writes
system.mem_ctrls.rdPerTurnAround::mean     177.309417                       # Reads before turning the bus around for writes
system.mem_ctrls.rdPerTurnAround::gmean     30.278449                       # Reads before turning the bus around for writes
system.mem_ctrls.rdPerTurnAround::stdev   2740.132093                       # Reads before turning the bus around for writes
system.mem_ctrls.rdPerTurnAround::0-2047          443     99.33%     99.33% # Reads before turning the bus around for writes
system.mem_ctrls.rdPerTurnAround::2048-4095            2      0.45%     99.78% # Reads before turning the bus around for writes
[...]
system.cpu.icache.tags.age_task_id_blocks_1024::0            6                       # Occupied blocks per task id
system.cpu.icache.tags.age_task_id_blocks_1024::2           11                       # Occupied blocks per task id
system.cpu.icache.tags.age_task_id_blocks_1024::4          663                       # Occupied blocks per task id
system.cpu.icache.tags.occ_task_id_percent::1024     0.664062                       # Percentage of cache occupancy per task id
system.cpu.icache.tags.tag_accesses          61550716                       # Number of tag accesses
system.cpu.icache.tags.data_accesses         61550716                       # Number of data accesses
system.cpu.dtb.walker.pwrStateResidencyTicks::UNDEFINED  62676848000                       # Cumulative time (in ticks) in various power states
system.cpu.dtb.stage2_mmu.stage2_tlb.walker.pwrStateResidencyTicks::UNDEFINED  62676848000                       # Cumulative time (in ticks) in various power states
system.cpu.dcache.pwrStateResidencyTicks::UNDEFINED  62676848000                       # Cumulative time (in ticks) in various power states
system.cpu.dcache.demand_hits::.cpu.data     34954995                       # number of demand (read+write) hits
system.cpu.dcache.demand_hits::total         34954995                       # number of demand (read+write) hits
system.cpu.dcache.overall_hits::.cpu.data     34958323                       # number of overall hits
system.cpu.dcache.overall_hits::total        34958323                       # number of overall hits
system.cpu.dcache.demand_misses::.cpu.data       114525                       # number of demand (read+write) misses
system.cpu.dcache.demand_misses::total         114525                       # number of demand (read+write) misses
system.cpu.dcache.overall_misses::.cpu.data       114562                       # number of overall misses
system.cpu.dcache.overall_misses::total        114562                       # number of overall misses
system.cpu.dcache.demand_miss_latency::.cpu.data   7630464500                       # number of demand (read+write) miss cycles
system.cpu.dcache.demand_miss_latency::total   7630464500                       # number of demand (read+write) miss cycles
system.cpu.dcache.overall_miss_latency::.cpu.data   7630464500                       # number of overall miss cycles
system.cpu.dcache.overall_miss_latency::total   7630464500                       # number of overall miss cycles
system.cpu.dcache.demand_accesses::.cpu.data     35069520                       # number of demand (read+write) accesses
system.cpu.dcache.demand_accesses::total     35069520                       # number of demand (read+write) accesses
system.cpu.dcache.overall_accesses::.cpu.data     35072885                       # number of overall (read+write) accesses
system.cpu.dcache.overall_accesses::total     35072885                       # number of overall (read+write) accesses
system.cpu.dcache.demand_miss_rate::.cpu.data     0.003266                       # miss rate for demand accesses
system.cpu.dcache.demand_miss_rate::total     0.003266                       # miss rate for demand accesses
system.cpu.dcache.overall_miss_rate::.cpu.data     0.003266                       # miss rate for overall accesses
system.cpu.dcache.overall_miss_rate::total     0.003266                       # miss rate for overall accesses
system.cpu.dcache.demand_avg_miss_latency::.cpu.data 66627.063960                       # average overall miss latency
system.cpu.dcache.demand_avg_miss_latency::total 66627.063960                       # average overall miss latency
system.cpu.dcache.overall_avg_miss_latency::.cpu.data 66605.545469                       # average overall miss latency
system.cpu.dcache.overall_avg_miss_latency::total 66605.545469                       # average overall miss latency
system.cpu.dcache.blocked_cycles::no_mshrs            0                       # number of cycles access was blocked
system.cpu.dcache.blocked_cycles::no_targets            0                       # number of cycles access was blocked
system.cpu.dcache.blocked::no_mshrs                 0                       # number of cycles access was blocked
system.cpu.dcache.blocked::no_targets               0                       # number of cycles access was blocked
system.cpu.dcache.avg_blocked_cycles::no_mshrs          nan                       # average number of cycles each access was blocked
system.cpu.dcache.avg_blocked_cycles::no_targets          nan                       # average number of cycles each access was blocked
system.cpu.dcache.writebacks::.writebacks        87337                       # number of writebacks
system.cpu.dcache.writebacks::total             87337                       # number of writebacks
system.cpu.dcache.demand_mshr_hits::.cpu.data        20855                       # number of demand (read+write) MSHR hits
system.cpu.dcache.demand_mshr_hits::total        20855                       # number of demand (read+write) MSHR hits
system.cpu.dcache.overall_mshr_hits::.cpu.data        20855                       # number of overall MSHR hits
system.cpu.dcache.overall_mshr_hits::total        20855                       # number of overall MSHR hits
system.cpu.dcache.demand_mshr_misses::.cpu.data        93670                       # number of demand (read+write) MSHR misses
system.cpu.dcache.demand_mshr_misses::total        93670                       # number of demand (read+write) MSHR misses
system.cpu.dcache.overall_mshr_misses::.cpu.data        93707                       # number of overall MSHR misses
system.cpu.dcache.overall_mshr_misses::total        93707                       # number of overall MSHR misses
system.cpu.dcache.demand_mshr_miss_latency::.cpu.data   6450318500                       # number of demand (read+write) MSHR miss cycles
system.cpu.dcache.demand_mshr_miss_latency::total   6450318500                       # number of demand (read+write) MSHR miss cycles
system.cpu.dcache.overall_mshr_miss_latency::.cpu.data   6452645500                       # number of overall MSHR miss cycles
system.cpu.dcache.overall_mshr_miss_latency::total   6452645500                       # number of overall MSHR miss cycles
system.cpu.dcache.demand_mshr_miss_rate::.cpu.data     0.002671                       # mshr miss rate for demand accesses
system.cpu.dcache.demand_mshr_miss_rate::total     0.002671                       # mshr miss rate for demand accesses
system.cpu.dcache.overall_mshr_miss_rate::.cpu.data     0.002672                       # mshr miss rate for overall accesses
system.cpu.dcache.overall_mshr_miss_rate::total     0.002672                       # mshr miss rate for overall accesses
system.cpu.dcache.demand_avg_mshr_miss_latency::.cpu.data 68862.159710                       # average overall mshr miss latency
system.cpu.dcache.demand_avg_mshr_miss_latency::total 68862.159710                       # average overall mshr miss latency
system.cpu.dcache.overall_avg_mshr_miss_latency::.cpu.data 68859.802363                       # average overall mshr miss latency
system.cpu.dcache.overall_avg_mshr_miss_latency::total 68859.802363                       # average overall mshr miss latency
system.cpu.dcache.replacements                  91660                       # number of replacements
system.cpu.dcache.ReadReq_hits::.cpu.data     20743884                       # number of ReadReq hits
system.cpu.dcache.ReadReq_hits::total        20743884                       # number of ReadReq hits
system.cpu.dcache.ReadReq_misses::.cpu.data        26328                       # number of ReadReq misses
system.cpu.dcache.ReadReq_misses::total         26328                       # number of ReadReq misses
system.cpu.dcache.ReadReq_miss_latency::.cpu.data    835840500                       # number of ReadReq miss cycles
system.cpu.dcache.ReadReq_miss_latency::total    835840500                       # number of ReadReq miss cycles
system.cpu.dcache.ReadReq_accesses::.cpu.data     20770212                       # number of ReadReq accesses(hits+misses)
system.cpu.dcache.ReadReq_accesses::total     20770212                       # number of ReadReq accesses(hits+misses)
system.cpu.dcache.ReadReq_miss_rate::.cpu.data     0.001268                       # miss rate for ReadReq accesses
system.cpu.dcache.ReadReq_miss_rate::total     0.001268                       # miss rate for ReadReq accesses
system.cpu.dcache.ReadReq_avg_miss_latency::.cpu.data 31747.208295                       # average ReadReq miss latency
system.cpu.dcache.ReadReq_avg_miss_latency::total 31747.208295                       # average ReadReq miss latency
system.cpu.dcache.ReadReq_mshr_hits::.cpu.data         4276                       # number of ReadReq MSHR hits
system.cpu.dcache.ReadReq_mshr_hits::total         4276                       # number of ReadReq MSHR hits
system.cpu.dcache.ReadReq_mshr_misses::.cpu.data        22052                       # number of ReadReq MSHR misses
system.cpu.dcache.ReadReq_mshr_misses::total        22052                       # number of ReadReq MSHR misses
system.cpu.dcache.ReadReq_mshr_miss_latency::.cpu.data    737982000                       # number of ReadReq MSHR miss cycles
system.cpu.dcache.ReadReq_mshr_miss_latency::total    737982000                       # number of ReadReq MSHR miss cycles
system.cpu.dcache.ReadReq_mshr_miss_rate::.cpu.data     0.001062                       # mshr miss rate for ReadReq accesses
system.cpu.dcache.ReadReq_mshr_miss_rate::total     0.001062                       # mshr miss rate for ReadReq accesses
system.cpu.dcache.ReadReq_avg_mshr_miss_latency::.cpu.data 33465.536006                       # average ReadReq mshr miss latency
system.cpu.dcache.ReadReq_avg_mshr_miss_latency::total 33465.536006                       # average ReadReq mshr miss latency
system.cpu.dcache.WriteReq_hits::.cpu.data     14211111                       # number of WriteReq hits
system.cpu.dcache.WriteReq_hits::total       14211111                       # number of WriteReq hits
system.cpu.dcache.WriteReq_misses::.cpu.data        88197                       # number of WriteReq misses
system.cpu.dcache.WriteReq_misses::total        88197                       # number of WriteReq misses
system.cpu.dcache.WriteReq_miss_latency::.cpu.data   6794624000                       # number of WriteReq miss cycles
system.cpu.dcache.WriteReq_miss_latency::total   6794624000                       # number of WriteReq miss cycles
system.cpu.dcache.WriteReq_accesses::.cpu.data     14299308                       # number of WriteReq accesses(hits+misses)
system.cpu.dcache.WriteReq_accesses::total     14299308                       # number of WriteReq accesses(hits+misses)
system.cpu.dcache.WriteReq_miss_rate::.cpu.data     0.006168                       # miss rate for WriteReq accesses
system.cpu.dcache.WriteReq_miss_rate::total     0.006168                       # miss rate for WriteReq accesses
system.cpu.dcache.WriteReq_avg_miss_latency::.cpu.data 77039.173668                       # average WriteReq miss latency
system.cpu.dcache.WriteReq_avg_miss_latency::total 77039.173668                       # average WriteReq miss latency
system.cpu.dcache.WriteReq_mshr_hits::.cpu.data        16579                       # number of WriteReq MSHR hits
system.cpu.dcache.WriteReq_mshr_hits::total        16579                       # number of WriteReq MSHR hits
system.cpu.dcache.WriteReq_mshr_misses::.cpu.data        71618                       # number of WriteReq MSHR misses
system.cpu.dcache.WriteReq_mshr_misses::total        71618                       # number of WriteReq MSHR misses
system.cpu.dcache.WriteReq_mshr_miss_latency::.cpu.data   5712336500                       # number of WriteReq MSHR miss cycles
system.cpu.dcache.WriteReq_mshr_miss_latency::total   5712336500                       # number of WriteReq MSHR miss cycles
system.cpu.dcache.WriteReq_mshr_miss_rate::.cpu.data     0.005008                       # mshr miss rate for WriteReq accesses
system.cpu.dcache.WriteReq_mshr_miss_rate::total     0.005008                       # mshr miss rate for WriteReq accesses
system.cpu.dcache.WriteReq_avg_mshr_miss_latency::.cpu.data 79761.184339                       # average WriteReq mshr miss latency
system.cpu.dcache.WriteReq_avg_mshr_miss_latency::total 79761.184339                       # average WriteReq mshr miss latency
system.cpu.dcache.SoftPFReq_hits::.cpu.data         3328                       # number of SoftPFReq hits
system.cpu.dcache.SoftPFReq_hits::total          3328                       # number of SoftPFReq hits
system.cpu.dcache.SoftPFReq_misses::.cpu.data           37                       # number of SoftPFReq misses
system.cpu.dcache.SoftPFReq_misses::total           37                       # number of SoftPFReq misses
system.cpu.dcache.SoftPFReq_accesses::.cpu.data         3365                       # number of SoftPFReq accesses(hits+misses)
system.cpu.dcache.SoftPFReq_accesses::total         3365                       # number of SoftPFReq accesses(hits+misses)
system.cpu.dcache.SoftPFReq_miss_rate::.cpu.data     0.010996                       # miss rate for SoftPFReq accesses
system.cpu.dcache.SoftPFReq_miss_rate::total     0.010996                       # miss rate for SoftPFReq accesses
system.cpu.dcache.SoftPFReq_mshr_misses::.cpu.data           37                       # number of SoftPFReq MSHR misses
system.cpu.dcache.SoftPFReq_mshr_misses::total           37                       # number of SoftPFReq MSHR misses
system.cpu.dcache.SoftPFReq_mshr_miss_latency::.cpu.data      2327000                       # number of SoftPFReq MSHR miss cycles
system.cpu.dcache.SoftPFReq_mshr_miss_latency::total      2327000                       # number of SoftPFReq MSHR miss cycles
system.cpu.dcache.SoftPFReq_mshr_miss_rate::.cpu.data     0.010996                       # mshr miss rate for SoftPFReq accesses
system.cpu.dcache.SoftPFReq_mshr_miss_rate::total     0.010996                       # mshr miss rate for SoftPFReq accesses
system.cpu.dcache.SoftPFReq_avg_mshr_miss_latency::.cpu.data 62891.891892                       # average SoftPFReq mshr miss latency
system.cpu.dcache.SoftPFReq_avg_mshr_miss_latency::total 62891.891892                       # average SoftPFReq mshr miss latency
system.cpu.dcache.LoadLockedReq_hits::.cpu.data        89079                       # number of LoadLockedReq hits
system.cpu.dcache.LoadLockedReq_hits::total        89079                       # number of LoadLockedReq hits
system.cpu.dcache.LoadLockedReq_misses::.cpu.data            1                       # number of LoadLockedReq misses
system.cpu.dcache.LoadLockedReq_misses::total            1                       # number of LoadLockedReq misses
system.cpu.dcache.LoadLockedReq_miss_latency::.cpu.data       100500                       # number of LoadLockedReq miss cycles
system.cpu.dcache.LoadLockedReq_miss_latency::total       100500                       # number of LoadLockedReq miss cycles
system.cpu.dcache.LoadLockedReq_accesses::.cpu.data        89080                       # number of LoadLockedReq accesses(hits+misses)
system.cpu.dcache.LoadLockedReq_accesses::total        89080                       # number of LoadLockedReq accesses(hits+misses)
system.cpu.dcache.LoadLockedReq_miss_rate::.cpu.data     0.000011                       # miss rate for LoadLockedReq accesses
system.cpu.dcache.LoadLockedReq_miss_rate::total     0.000011                       # miss rate for LoadLockedReq accesses
system.cpu.dcache.LoadLockedReq_avg_miss_latency::.cpu.data       100500                       # average LoadLockedReq miss latency
system.cpu.dcache.LoadLockedReq_avg_miss_latency::total       100500                       # average LoadLockedReq miss latency
system.cpu.dcache.LoadLockedReq_mshr_misses::.cpu.data            1                       # number of LoadLockedReq MSHR misses
system.cpu.dcache.LoadLockedReq_mshr_misses::total            1                       # number of LoadLockedReq MSHR misses
system.cpu.dcache.LoadLockedReq_mshr_miss_latency::.cpu.data        99500                       # number of LoadLockedReq MSHR miss cycles
system.cpu.dcache.LoadLockedReq_mshr_miss_latency::total        99500                       # number of LoadLockedReq MSHR miss cycles
system.cpu.dcache.LoadLockedReq_mshr_miss_rate::.cpu.data     0.000011                       # mshr miss rate for LoadLockedReq accesses
system.cpu.dcache.LoadLockedReq_mshr_miss_rate::total     0.000011                       # mshr miss rate for LoadLockedReq accesses
system.cpu.dcache.LoadLockedReq_avg_mshr_miss_latency::.cpu.data        99500                       # average LoadLockedReq mshr miss latency
system.cpu.dcache.LoadLockedReq_avg_mshr_miss_latency::total        99500                       # average LoadLockedReq mshr miss latency
system.cpu.dcache.StoreCondReq_hits::.cpu.data        89080                       # number of StoreCondReq hits
system.cpu.dcache.StoreCondReq_hits::total        89080                       # number of StoreCondReq hits
system.cpu.dcache.StoreCondReq_accesses::.cpu.data        89080                       # number of StoreCondReq accesses(hits+misses)
system.cpu.dcache.StoreCondReq_accesses::total        89080                       # number of StoreCondReq accesses(hits+misses)
system.cpu.dcache.tags.pwrStateResidencyTicks::UNDEFINED  62676848000                       # Cumulative time (in ticks) in various power states
system.cpu.dcache.tags.tagsinuse          2039.142421                       # Cycle average of tags in use
system.cpu.dcache.tags.total_refs            35230190                       # Total number of references to valid blocks.
system.cpu.dcache.tags.sampled_refs             93708                       # Sample count of references to valid blocks.
system.cpu.dcache.tags.avg_refs            375.957122                       # Average number of references to valid blocks.
system.cpu.dcache.tags.warmup_cycle            195500                       # Cycle when the warmup percentage was hit.
system.cpu.dcache.tags.occ_blocks::.cpu.data  2039.142421                       # Average occupied blocks per requestor
system.cpu.dcache.tags.occ_percent::.cpu.data     0.995675                       # Average percentage of cache occupancy
system.cpu.dcache.tags.occ_percent::total     0.995675                       # Average percentage of cache occupancy
system.cpu.dcache.tags.occ_task_id_blocks::1024         2048                       # Occupied blocks per task id
system.cpu.dcache.tags.age_task_id_blocks_1024::0            7                       # Occupied blocks per task id
system.cpu.dcache.tags.age_task_id_blocks_1024::1           83                       # Occupied blocks per task id
system.cpu.dcache.tags.age_task_id_blocks_1024::2          828                       # Occupied blocks per task id
system.cpu.dcache.tags.age_task_id_blocks_1024::3         1028                       # Occupied blocks per task id
system.cpu.dcache.tags.age_task_id_blocks_1024::4          102                       # Occupied blocks per task id
system.cpu.dcache.tags.occ_task_id_percent::1024            1                       # Percentage of cache occupancy per task id
system.cpu.dcache.tags.tag_accesses          70595798                       # Number of tag accesses
system.cpu.dcache.tags.data_accesses         70595798                       # Number of data accesses
system.cpu.itb.walker.pwrStateResidencyTicks::UNDEFINED  62676848000                       # Cumulative time (in ticks) in various power states
system.cpu.itb.stage2_mmu.stage2_tlb.walker.pwrStateResidencyTicks::UNDEFINED  62676848000                       # Cumulative time (in ticks) in various power states

---------- End Simulation Statistics   ----------
