
---------- Begin Simulation Statistics ----------
final_tick                                84093845000                       # Number of ticks from beginning of simulation (restored from checkpoints and never reset)
host_inst_rate                                 179785                       # Simulator instruction rate (inst/s)
host_mem_usage                                 691644                       # Number of bytes of host memory used
host_op_rate                                   180139                       # Simulator op (including micro ops) rate (op/s)
host_seconds                                   556.22                       # Real time elapsed on the host
host_tick_rate                              151187715                       # Simulator tick rate (ticks/s)
sim_freq                                 1000000000000                       # Frequency of simulated ticks
sim_insts                                   100000000                       # Number of instructions simulated
sim_ops                                     100196967                       # Number of ops (including micro ops) simulated
sim_seconds                                  0.084094                       # Number of seconds simulated
sim_ticks                                 84093845000                       # Number of ticks simulated
system.cpu.branchPred.BTBCorrect                    0                       # Number of correct BTB predictions (this stat may not work properly.
system.cpu.branchPred.BTBHitPct             99.687857                       # BTB Hit Percentage
system.cpu.branchPred.BTBHits                 2094405                       # Number of BTB hits
system.cpu.branchPred.BTBLookups              2100963                       # Number of BTB lookups
system.cpu.branchPred.RASInCorrect                  5                       # Number of incorrect RAS predictions.
system.cpu.branchPred.condIncorrect             81355                       # Number of conditional branches incorrect
system.cpu.branchPred.condPredicted           3726223                       # Number of conditional branches predicted
system.cpu.branchPred.indirectHits                333                       # Number of indirect target hits.
system.cpu.branchPred.indirectLookups             740                       # Number of indirect predictor lookups.
system.cpu.branchPred.indirectMisses              407                       # Number of indirect misses.
system.cpu.branchPred.lookups                 4475801                       # Number of BP lookups
system.cpu.branchPred.usedRAS                   65084                       # Number of times the RAS was used to get a target.
system.cpu.branchPredindirectMispredicted          211                       # Number of mispredicted indirect branches.
system.cpu.committedInsts                   100000000                       # Number of instructions committed
system.cpu.committedOps                     100196967                       # Number of ops (including micro ops) committed
system.cpu.cpi                               1.681877                       # CPI: cycles per instruction
system.cpu.discardedOps                        188938                       # Number of ops (including micro ops) which were discarded before commit
system.cpu.dtb.accesses                             0                       # DTB accesses
system.cpu.dtb.align_faults                         0                       # Number of TLB faults due to alignment restrictions
system.cpu.dtb.domain_faults                        0                       # Number of TLB faults due to domain restrictions
system.cpu.dtb.flush_entries                        0                       # Number of entries that have been flushed from TLB
system.cpu.dtb.flush_tlb                            0                       # Number of times complete TLB was flushed
system.cpu.dtb.flush_tlb_asid                       0                       # Number of times TLB was flushed by ASID
system.cpu.dtb.flush_tlb_mva                        0                       # Number of times TLB was flushed by MVA
system.cpu.dtb.flush_tlb_mva_asid                   0                       # Number of times TLB was flushed by MVA & ASID
system.cpu.dtb.hits                                 0                       # DTB hits
system.cpu.dtb.inst_accesses                        0                       # ITB inst accesses
system.cpu.dtb.inst_hits                            0                       # ITB inst hits
system.cpu.dtb.inst_misses                          0                       # ITB inst misses
system.cpu.dtb.misses                               0                       # DTB misses
system.cpu.dtb.perms_faults                         0                       # Number of TLB faults due to permissions restrictions
system.cpu.dtb.prefetch_faults                      0                       # Number of TLB faults due to prefetch
system.cpu.dtb.read_accesses                        0                       # DTB read accesses
system.cpu.dtb.read_hits                            0                       # DTB read hits
system.cpu.dtb.read_misses                          0                       # DTB read misses
system.cpu.dtb.stage2_mmu.stage2_tlb.accesses            0                       # DTB accesses
system.cpu.dtb.stage2_mmu.stage2_tlb.align_faults            0                       # Number of TLB faults due to alignment restrictions
system.cpu.dtb.stage2_mmu.stage2_tlb.domain_faults            0                       # Number of TLB faults due to domain restrictions
system.cpu.dtb.stage2_mmu.stage2_tlb.flush_entries            0                       # Number of entries that have been flushed from TLB
system.cpu.dtb.stage2_mmu.stage2_tlb.flush_tlb            0                       # Number of times complete TLB was flushed
system.cpu.dtb.stage2_mmu.stage2_tlb.flush_tlb_asid            0                       # Number of times TLB was flushed by ASID
system.cpu.dtb.stage2_mmu.stage2_tlb.flush_tlb_mva            0                       # Number of times TLB was flushed by MVA
system.cpu.dtb.stage2_mmu.stage2_tlb.flush_tlb_mva_asid            0                       # Number of times TLB was flushed by MVA & ASID
system.cpu.dtb.stage2_mmu.stage2_tlb.hits            0                       # DTB hits
system.cpu.dtb.stage2_mmu.stage2_tlb.inst_accesses            0                       # ITB inst accesses
system.cpu.dtb.stage2_mmu.stage2_tlb.inst_hits            0                       # ITB inst hits
system.cpu.dtb.stage2_mmu.stage2_tlb.inst_misses            0                       # ITB inst misses
system.cpu.dtb.stage2_mmu.stage2_tlb.misses            0                       # DTB misses
system.cpu.dtb.stage2_mmu.stage2_tlb.perms_faults            0                       # Number of TLB faults due to permissions restrictions
system.cpu.dtb.stage2_mmu.stage2_tlb.prefetch_faults            0                       # Number of TLB faults due to prefetch
system.cpu.dtb.stage2_mmu.stage2_tlb.read_accesses            0                       # DTB read accesses
system.cpu.dtb.stage2_mmu.stage2_tlb.read_hits            0                       # DTB read hits
system.cpu.dtb.stage2_mmu.stage2_tlb.read_misses            0                       # DTB read misses
system.cpu.dtb.stage2_mmu.stage2_tlb.walker.walkRequestOrigin_Requested::Data            0                       # Table walker requests started/completed, data/inst
system.cpu.dtb.stage2_mmu.stage2_tlb.walker.walkRequestOrigin_Requested::Inst            0                       # Table walker requests started/completed, data/inst
system.cpu.dtb.stage2_mmu.stage2_tlb.walker.walkRequestOrigin_Requested::total            0                       # Table walker requests started/completed, data/inst
system.cpu.dtb.stage2_mmu.stage2_tlb.walker.walkRequestOrigin_Completed::Data            0                       # Table walker requests started/completed, data/inst
system.cpu.dtb.stage2_mmu.stage2_tlb.walker.walkRequestOrigin_Completed::Inst            0                       # Table walker requests started/completed, data/inst
system.cpu.dtb.stage2_mmu.stage2_tlb.walker.walkRequestOrigin_Completed::total            0                       # Table walker requests started/completed, data/inst
system.cpu.dtb.stage2_mmu.stage2_tlb.walker.walkRequestOrigin::total            0                       # Table walker requests started/completed, data/inst
system.cpu.dtb.stage2_mmu.stage2_tlb.walker.walks            0                       # Table walker walks requested
system.cpu.dtb.stage2_mmu.stage2_tlb.write_accesses            0                       # DTB write accesses
system.cpu.dtb.stage2_mmu.stage2_tlb.write_hits            0                       # DTB write hits
system.cpu.dtb.stage2_mmu.stage2_tlb.write_misses            0                       # DTB write misses
system.cpu.dtb.walker.walkRequestOrigin_Requested::Data            0                       # Table walker requests started/completed, data/inst
system.cpu.dtb.walker.walkRequestOrigin_Requested::Inst            0                       # Table walker requests started/completed, data/inst
system.cpu.dtb.walker.walkRequestOrigin_Requested::total            0                       # Table walker requests started/completed, data/inst
system.cpu.dtb.walker.walkRequestOrigin_Completed::Data            0                       # Table walker requests started/completed, data/inst
system.cpu.dtb.walker.walkRequestOrigin_Completed::Inst            0                       # Table walker requests started/completed, data/inst
system.cpu.dtb.walker.walkRequestOrigin_Completed::total            0                       # Table walker requests started/completed, data/inst
system.cpu.dtb.walker.walkRequestOrigin::total            0                       # Table walker requests started/completed, data/inst
system.cpu.dtb.walker.walks                         0                       # Table walker walks requested
system.cpu.dtb.write_accesses                       0                       # DTB write accesses
system.cpu.dtb.write_hits                           0                       # DTB write hits
system.cpu.dtb.write_misses                         0                       # DTB write misses
system.cpu.fetch2.amo_instructions                  0                       # Number of memory atomic instructions successfully decoded
system.cpu.fetch2.fp_instructions                   0                       # Number of floating point instructions successfully decoded
system.cpu.fetch2.int_instructions           42600375                       # Number of integer instructions successfully decoded
system.cpu.fetch2.load_instructions          43395141                       # Number of memory load instructions successfully decoded
system.cpu.fetch2.store_instructions         10999228                       # Number of memory store instructions successfully decoded
system.cpu.fetch2.vec_instructions                  0                       # Number of SIMD instructions successfully decoded
system.cpu.idleCycles                        35399361                       # Total number of cycles that the object has spent stopped
system.cpu.ipc                               0.594574                       # IPC: instructions per cycle
system.cpu.itb.accesses                             0                       # DTB accesses
system.cpu.itb.align_faults                         0                       # Number of TLB faults due to alignment restrictions
system.cpu.itb.domain_faults                        0                       # Number of TLB faults due to domain restrictions
system.cpu.itb.flush_entries                        0                       # Number of entries that have been flushed from TLB
system.cpu.itb.flush_tlb                            0                       # Number of times complete TLB was flushed
system.cpu.itb.flush_tlb_asid                       0                       # Number of times TLB was flushed by ASID
system.cpu.itb.flush_tlb_mva                        0                       # Number of times TLB was flushed by MVA
system.cpu.itb.flush_tlb_mva_asid                   0                       # Number of times TLB was flushed by MVA & ASID
system.cpu.itb.hits                                 0                       # DTB hits
system.cpu.itb.inst_accesses                        0                       # ITB inst accesses
system.cpu.itb.inst_hits                            0                       # ITB inst hits
system.cpu.itb.inst_misses                          0                       # ITB inst misses
system.cpu.itb.misses                               0                       # DTB misses
system.cpu.itb.perms_faults                         0                       # Number of TLB faults due to permissions restrictions
system.cpu.itb.prefetch_faults                      0                       # Number of TLB faults due to prefetch
system.cpu.itb.read_accesses                        0                       # DTB read accesses
system.cpu.itb.read_hits                            0                       # DTB read hits
system.cpu.itb.read_misses                          0                       # DTB read misses
system.cpu.itb.stage2_mmu.stage2_tlb.accesses            0                       # DTB accesses
system.cpu.itb.stage2_mmu.stage2_tlb.align_faults            0                       # Number of TLB faults due to alignment restrictions
system.cpu.itb.stage2_mmu.stage2_tlb.domain_faults            0                       # Number of TLB faults due to domain restrictions
system.cpu.itb.stage2_mmu.stage2_tlb.flush_entries            0                       # Number of entries that have been flushed from TLB
system.cpu.itb.stage2_mmu.stage2_tlb.flush_tlb            0                       # Number of times complete TLB was flushed
system.cpu.itb.stage2_mmu.stage2_tlb.flush_tlb_asid            0                       # Number of times TLB was flushed by ASID
system.cpu.itb.stage2_mmu.stage2_tlb.flush_tlb_mva            0                       # Number of times TLB was flushed by MVA
system.cpu.itb.stage2_mmu.stage2_tlb.flush_tlb_mva_asid            0                       # Number of times TLB was flushed by MVA & ASID
system.cpu.itb.stage2_mmu.stage2_tlb.hits            0                       # DTB hits
system.cpu.itb.stage2_mmu.stage2_tlb.inst_accesses            0                       # ITB inst accesses
system.cpu.itb.stage2_mmu.stage2_tlb.inst_hits            0                       # ITB inst hits
system.cpu.itb.stage2_mmu.stage2_tlb.inst_misses            0                       # ITB inst misses
system.cpu.itb.stage2_mmu.stage2_tlb.misses            0                       # DTB misses
system.cpu.itb.stage2_mmu.stage2_tlb.perms_faults            0                       # Number of TLB faults due to permissions restrictions
system.cpu.itb.stage2_mmu.stage2_tlb.prefetch_faults            0                       # Number of TLB faults due to prefetch
system.cpu.itb.stage2_mmu.stage2_tlb.read_accesses            0                       # DTB read accesses
system.cpu.itb.stage2_mmu.stage2_tlb.read_hits            0                       # DTB read hits
system.cpu.itb.stage2_mmu.stage2_tlb.read_misses            0                       # DTB read misses
system.cpu.itb.stage2_mmu.stage2_tlb.walker.walkRequestOrigin_Requested::Data            0                       # Table walker requests started/completed, data/inst
system.cpu.itb.stage2_mmu.stage2_tlb.walker.walkRequestOrigin_Requested::Inst            0                       # Table walker requests started/completed, data/inst
system.cpu.itb.stage2_mmu.stage2_tlb.walker.walkRequestOrigin_Requested::total            0                       # Table walker requests started/completed, data/inst
system.cpu.itb.stage2_mmu.stage2_tlb.walker.walkRequestOrigin_Completed::Data            0                       # Table walker requests started/completed, data/inst
system.cpu.itb.stage2_mmu.stage2_tlb.walker.walkRequestOrigin_Completed::Inst            0                       # Table walker requests started/completed, data/inst
system.cpu.itb.stage2_mmu.stage2_tlb.walker.walkRequestOrigin_Completed::total            0                       # Table walker requests started/completed, data/inst
system.cpu.itb.stage2_mmu.stage2_tlb.walker.walkRequestOrigin::total            0                       # Table walker requests started/completed, data/inst
system.cpu.itb.stage2_mmu.stage2_tlb.walker.walks            0                       # Table walker walks requested
system.cpu.itb.stage2_mmu.stage2_tlb.write_accesses            0                       # DTB write accesses
system.cpu.itb.stage2_mmu.stage2_tlb.write_hits            0                       # DTB write hits
system.cpu.itb.stage2_mmu.stage2_tlb.write_misses            0                       # DTB write misses
system.cpu.itb.walker.walkRequestOrigin_Requested::Data            0                       # Table walker requests started/completed, data/inst
system.cpu.itb.walker.walkRequestOrigin_Requested::Inst            0                       # Table walker requests started/completed, data/inst
system.cpu.itb.walker.walkRequestOrigin_Requested::total            0                       # Table walker requests started/completed, data/inst
system.cpu.itb.walker.walkRequestOrigin_Completed::Data            0                       # Table walker requests started/completed, data/inst
system.cpu.itb.walker.walkRequestOrigin_Completed::Inst            0                       # Table walker requests started/completed, data/inst
system.cpu.itb.walker.walkRequestOrigin_Completed::total            0                       # Table walker requests started/completed, data/inst
system.cpu.itb.walker.walkRequestOrigin::total            0                       # Table walker requests started/completed, data/inst
system.cpu.itb.walker.walks                         0                       # Table walker walks requested
system.cpu.itb.write_accesses                       0                       # DTB write accesses
system.cpu.itb.write_hits                           0                       # DTB write hits
system.cpu.itb.write_misses                         0                       # DTB write misses
system.cpu.numCycles                        168187690                       # number of cpu cycles simulated
system.cpu.numFetchSuspends                         0                       # Number of times Execute suspended instruction fetching
system.cpu.numWorkItemsCompleted                    0                       # number of work items this cpu completed
system.cpu.numWorkItemsStarted                      0                       # number of work items this cpu started
system.cpu.op_class_0::No_OpClass                   0      0.00%      0.00% # Class of committed instruction
system.cpu.op_class_0::IntAlu                46531866     46.44%     46.44% # Class of committed instruction
system.cpu.op_class_0::IntMult                  20720      0.02%     46.46% # Class of committed instruction
system.cpu.op_class_0::IntDiv                       0      0.00%     46.46% # Class of committed instruction
system.cpu.op_class_0::FloatAdd                     0      0.00%     46.46% # Class of committed instruction
system.cpu.op_class_0::FloatCmp                     0      0.00%     46.46% # Class of committed instruction
system.cpu.op_class_0::FloatCvt                     0      0.00%     46.46% # Class of committed instruction
system.cpu.op_class_0::FloatMult                    0      0.00%     46.46% # Class of committed instruction
system.cpu.op_class_0::FloatMultAcc                 0      0.00%     46.46% # Class of committed instruction
system.cpu.op_class_0::FloatDiv                     0      0.00%     46.46% # Class of committed instruction
system.cpu.op_class_0::FloatMisc                    0      0.00%     46.46% # Class of committed instruction
system.cpu.op_class_0::FloatSqrt                    0      0.00%     46.46% # Class of committed instruction
system.cpu.op_class_0::SimdAdd                      0      0.00%     46.46% # Class of committed instruction
system.cpu.op_class_0::SimdAddAcc                   0      0.00%     46.46% # Class of committed instruction
system.cpu.op_class_0::SimdAlu                      0      0.00%     46.46% # Class of committed instruction
system.cpu.op_class_0::SimdCmp                      0      0.00%     46.46% # Class of committed instruction
system.cpu.op_class_0::SimdCvt                      0      0.00%     46.46% # Class of committed instruction
system.cpu.op_class_0::SimdMisc                     0      0.00%     46.46% # Class of committed instruction
system.cpu.op_class_0::SimdMult                     0      0.00%     46.46% # Class of committed instruction
system.cpu.op_class_0::SimdMultAcc                  0      0.00%     46.46% # Class of committed instruction
system.cpu.op_class_0::SimdShift                    0      0.00%     46.46% # Class of committed instruction
system.cpu.op_class_0::SimdShiftAcc                 0      0.00%     46.46% # Class of committed instruction
system.cpu.op_class_0::SimdDiv                      0      0.00%     46.46% # Class of committed instruction
system.cpu.op_class_0::SimdSqrt                     0      0.00%     46.46% # Class of committed instruction
system.cpu.op_class_0::SimdFloatAdd                 0      0.00%     46.46% # Class of committed instruction
system.cpu.op_class_0::SimdFloatAlu                 0      0.00%     46.46% # Class of committed instruction
system.cpu.op_class_0::SimdFloatCmp                 0      0.00%     46.46% # Class of committed instruction
system.cpu.op_class_0::SimdFloatCvt                 0      0.00%     46.46% # Class of committed instruction
system.cpu.op_class_0::SimdFloatDiv                 0      0.00%     46.46% # Class of committed instruction
system.cpu.op_class_0::SimdFloatMisc               18      0.00%     46.46% # Class of committed instruction
system.cpu.op_class_0::SimdFloatMult                0      0.00%     46.46% # Class of committed instruction
system.cpu.op_class_0::SimdFloatMultAcc             0      0.00%     46.46% # Class of committed instruction
system.cpu.op_class_0::SimdFloatSqrt                0      0.00%     46.46% # Class of committed instruction
system.cpu.op_class_0::SimdReduceAdd                0      0.00%     46.46% # Class of committed instruction
system.cpu.op_class_0::SimdReduceAlu                0      0.00%     46.46% # Class of committed instruction
system.cpu.op_class_0::SimdReduceCmp                0      0.00%     46.46% # Class of committed instruction
system.cpu.op_class_0::SimdFloatReduceAdd            0      0.00%     46.46% # Class of committed instruction
system.cpu.op_class_0::SimdFloatReduceCmp            0      0.00%     46.46% # Class of committed instruction
system.cpu.op_class_0::SimdAes                      0      0.00%     46.46% # Class of committed instruction
system.cpu.op_class_0::SimdAesMix                   0      0.00%     46.46% # Class of committed instruction
system.cpu.op_class_0::SimdSha1Hash                 0      0.00%     46.46% # Class of committed instruction
system.cpu.op_class_0::SimdSha1Hash2                0      0.00%     46.46% # Class of committed instruction
system.cpu.op_class_0::SimdSha256Hash               0      0.00%     46.46% # Class of committed instruction
system.cpu.op_class_0::SimdSha256Hash2              0      0.00%     46.46% # Class of committed instruction
system.cpu.op_class_0::SimdShaSigma2                0      0.00%     46.46% # Class of committed instruction
system.cpu.op_class_0::SimdShaSigma3                0      0.00%     46.46% # Class of committed instruction
system.cpu.op_class_0::SimdPredAlu                  0      0.00%     46.46% # Class of committed instruction
system.cpu.op_class_0::MemRead               42693523     42.61%     89.07% # Class of committed instruction
system.cpu.op_class_0::MemWrite              10950840     10.93%    100.00% # Class of committed instruction
system.cpu.op_class_0::FloatMemRead                 0      0.00%    100.00% # Class of committed instruction
system.cpu.op_class_0::FloatMemWrite                0      0.00%    100.00% # Class of committed instruction
system.cpu.op_class_0::IprAccess                    0      0.00%    100.00% # Class of committed instruction
system.cpu.op_class_0::InstPrefetch                 0      0.00%    100.00% # Class of committed instruction
system.cpu.op_class_0::total                100196967                       # Class of committed instruction
system.cpu.tickCycles                       132788329                       # Number of cycles that the object actually ticked
system.cpu.workload.numSyscalls                   127                       # Number of system calls
system.membus.snoop_filter.hit_multi_requests            0                       # Number of requests hitting in the snoop filter with multiple (>1) holders of the requested data.
system.membus.snoop_filter.hit_multi_snoops            0                       # Number of snoops hitting in the snoop filter with multiple (>1) holders of the requested data.
system.membus.snoop_filter.hit_single_requests       168357                       # Number of requests hitting in the snoop filter with a single holder of the requested data.
system.membus.snoop_filter.hit_single_snoops            0                       # Number of snoops hitting in the snoop filter with a single holder of the requested data.
system.membus.snoop_filter.tot_requests        369480                       # Total number of requests made to the snoop filter.
system.membus.snoop_filter.tot_snoops               0                       # Total number of snoops made to the snoop filter.
system.tol2bus.snoop_filter.hit_multi_requests          823                       # Number of requests hitting in the snoop filter with multiple (>1) holders of the requested data.
system.tol2bus.snoop_filter.hit_multi_snoops            0                       # Number of snoops hitting in the snoop filter with multiple (>1) holders of the requested data.
system.tol2bus.snoop_filter.hit_single_requests       727922                       # Number of requests hitting in the snoop filter with a single holder of the requested data.
system.tol2bus.snoop_filter.hit_single_snoops          150                       # Number of snoops hitting in the snoop filter with a single holder of the requested data.
system.tol2bus.snoop_filter.tot_requests      1456928                       # Total number of requests made to the snoop filter.
system.tol2bus.snoop_filter.tot_snoops            150                       # Total number of snoops made to the snoop filter.
system.membus.pwrStateResidencyTicks::UNDEFINED  84093845000                       # Cumulative time (in ticks) in various power states
system.membus.trans_dist::ReadResp              65024                       # Transaction distribution
system.membus.trans_dist::WritebackDirty       111096                       # Transaction distribution
system.membus.trans_dist::CleanEvict            57258                       # Transaction distribution
system.membus.trans_dist::ReadExReq            136102                       # Transaction distribution
system.membus.trans_dist::ReadExResp           136102                       # Transaction distribution
system.membus.trans_dist::ReadSharedReq         65024                       # Transaction distribution
system.membus.pkt_count_system.l2.mem_side::system.mem_ctrls.port       570606                       # Packet count per connected master and slave (bytes)
system.membus.pkt_count::total                 570606                       # Packet count per connected master and slave (bytes)
system.membus.pkt_size_system.l2.mem_side::system.mem_ctrls.port     19982208                       # Cumulative packet size per connected master and slave (bytes)
system.membus.pkt_size::total                19982208                       # Cumulative packet size per connected master and slave (bytes)
system.membus.snoops                                0                       # Total snoops (count)
system.membus.snoopTraffic                          0                       # Total snoop traffic (bytes)
system.membus.snoop_fanout::samples            201126                       # Request fanout histogram
system.membus.snoop_fanout::mean                    0                       # Request fanout histogram
system.membus.snoop_fanout::stdev                   0                       # Request fanout histogram
system.membus.snoop_fanout::underflows              0      0.00%      0.00% # Request fanout histogram
system.membus.snoop_fanout::0                  201126    100.00%    100.00% # Request fanout histogram
system.membus.snoop_fanout::1                       0      0.00%    100.00% # Request fanout histogram
system.membus.snoop_fanout::overflows               0      0.00%    100.00% # Request fanout histogram
system.membus.snoop_fanout::min_value               0                       # Request fanout histogram
system.membus.snoop_fanout::max_value               0                       # Request fanout histogram
system.membus.snoop_fanout::total              201126                       # Request fanout histogram
system.membus.respLayer1.occupancy         1083379500                       # Layer occupancy (ticks)
system.membus.respLayer1.utilization              1.3                       # Layer utilization (%)
system.membus.reqLayer0.occupancy           855761000                       # Layer occupancy (ticks)
system.membus.reqLayer0.utilization               1.0                       # Layer utilization (%)
system.tol2bus.pwrStateResidencyTicks::UNDEFINED  84093845000                       # Cumulative time (in ticks) in various power states
system.tol2bus.trans_dist::ReadResp            442653                       # Transaction distribution
system.tol2bus.trans_dist::WritebackDirty       746716                       # Transaction distribution
system.tol2bus.trans_dist::WritebackClean        17257                       # Transaction distribution
system.tol2bus.trans_dist::CleanEvict          132451                       # Transaction distribution
system.tol2bus.trans_dist::ReadExReq           286355                       # Transaction distribution
system.tol2bus.trans_dist::ReadExResp          286355                       # Transaction distribution
system.tol2bus.trans_dist::ReadCleanReq         17321                       # Transaction distribution
system.tol2bus.trans_dist::ReadSharedReq       425332                       # Transaction distribution
system.tol2bus.pkt_count_system.cpu.icache.mem_side::system.l2.cpu_side        51899                       # Packet count per connected master and slave (bytes)
system.tol2bus.pkt_count_system.cpu.dcache.mem_side::system.l2.cpu_side      2134037                       # Packet count per connected master and slave (bytes)
system.tol2bus.pkt_count::total               2185936                       # Packet count per connected master and slave (bytes)
system.tol2bus.pkt_size_system.cpu.icache.mem_side::system.l2.cpu_side      2212992                       # Cumulative packet size per connected master and slave (bytes)
system.tol2bus.pkt_size_system.cpu.dcache.mem_side::system.l2.cpu_side     86227648                       # Cumulative packet size per connected master and slave (bytes)
system.tol2bus.pkt_size::total               88440640                       # Cumulative packet size per connected master and slave (bytes)
system.tol2bus.snoops                          168504                       # Total snoops (count)
system.tol2bus.snoopTraffic                   7110144                       # Total snoop traffic (bytes)
system.tol2bus.snoop_fanout::samples           897512                       # Request fanout histogram
system.tol2bus.snoop_fanout::mean            0.001086                       # Request fanout histogram
system.tol2bus.snoop_fanout::stdev           0.032942                       # Request fanout histogram
system.tol2bus.snoop_fanout::underflows             0      0.00%      0.00% # Request fanout histogram
system.tol2bus.snoop_fanout::0                 896537     99.89%     99.89% # Request fanout histogram
system.tol2bus.snoop_fanout::1                    975      0.11%    100.00% # Request fanout histogram
system.tol2bus.snoop_fanout::2                      0      0.00%    100.00% # Request fanout histogram
system.tol2bus.snoop_fanout::overflows              0      0.00%    100.00% # Request fanout histogram
system.tol2bus.snoop_fanout::min_value              0                       # Request fanout histogram
system.tol2bus.snoop_fanout::max_value              1                       # Request fanout histogram
system.tol2bus.snoop_fanout::total             897512                       # Request fanout histogram
system.tol2bus.reqLayer0.occupancy         1381341000                       # Layer occupancy (ticks)
system.tol2bus.reqLayer0.utilization              1.6                       # Layer utilization (%)
system.tol2bus.respLayer1.occupancy        1067535490                       # Layer occupancy (ticks)
system.tol2bus.respLayer1.utilization             1.3                       # Layer utilization (%)
system.tol2bus.respLayer0.occupancy          25981500                       # Layer occupancy (ticks)
system.tol2bus.respLayer0.utilization             0.0                       # Layer utilization (%)
system.voltage_domain.voltage                       1                       # Voltage in Volts
system.clk_domain.clock                          1000                       # Clock period in ticks
system.l2.pwrStateResidencyTicks::UNDEFINED  84093845000                       # Cumulative time (in ticks) in various power states
system.l2.demand_hits::.cpu.inst                16556                       # number of demand (read+write) hits
system.l2.demand_hits::.cpu.data               511322                       # number of demand (read+write) hits
system.l2.demand_hits::total                   527878                       # number of demand (read+write) hits
system.l2.overall_hits::.cpu.inst               16556                       # number of overall hits
system.l2.overall_hits::.cpu.data              511322                       # number of overall hits
system.l2.overall_hits::total                  527878                       # number of overall hits
system.l2.demand_misses::.cpu.inst                765                       # number of demand (read+write) misses
system.l2.demand_misses::.cpu.data             200365                       # number of demand (read+write) misses
system.l2.demand_misses::total                 201130                       # number of demand (read+write) misses
system.l2.overall_misses::.cpu.inst               765                       # number of overall misses
system.l2.overall_misses::.cpu.data            200365                       # number of overall misses
system.l2.overall_misses::total                201130                       # number of overall misses
system.l2.demand_miss_latency::.cpu.inst     60159500                       # number of demand (read+write) miss cycles
system.l2.demand_miss_latency::.cpu.data  16939886000                       # number of demand (read+write) miss cycles
system.l2.demand_miss_latency::total      17000045500                       # number of demand (read+write) miss cycles
system.l2.overall_miss_latency::.cpu.inst     60159500                       # number of overall miss cycles
system.l2.overall_miss_latency::.cpu.data  16939886000                       # number of overall miss cycles
system.l2.overall_miss_latency::total     17000045500                       # number of overall miss cycles
system.l2.demand_accesses::.cpu.inst            17321                       # number of demand (read+write) accesses
system.l2.demand_accesses::.cpu.data           711687                       # number of demand (read+write) accesses
system.l2.demand_accesses::total               729008                       # number of demand (read+write) accesses
system.l2.overall_accesses::.cpu.inst           17321                       # number of overall (read+write) accesses
system.l2.overall_accesses::.cpu.data          711687                       # number of overall (read+write) accesses
system.l2.overall_accesses::total              729008                       # number of overall (read+write) accesses
system.l2.demand_miss_rate::.cpu.inst        0.044166                       # miss rate for demand accesses
system.l2.demand_miss_rate::.cpu.data        0.281535                       # miss rate for demand accesses
system.l2.demand_miss_rate::total            0.275895                       # miss rate for demand accesses
system.l2.overall_miss_rate::.cpu.inst       0.044166                       # miss rate for overall accesses
system.l2.overall_miss_rate::.cpu.data       0.281535                       # miss rate for overall accesses
system.l2.overall_miss_rate::total           0.275895                       # miss rate for overall accesses
system.l2.demand_avg_miss_latency::.cpu.inst 78639.869281                       # average overall miss latency
system.l2.demand_avg_miss_latency::.cpu.data 84545.135128                       # average overall miss latency
system.l2.demand_avg_miss_latency::total 84522.674390                       # average overall miss latency
system.l2.overall_avg_miss_latency::.cpu.inst 78639.869281                       # average overall miss latency
system.l2.overall_avg_miss_latency::.cpu.data 84545.135128                       # average overall miss latency
system.l2.overall_avg_miss_latency::total 84522.674390                       # average overall miss latency
system.l2.blocked_cycles::no_mshrs                  0                       # number of cycles access was blocked
system.l2.blocked_cycles::no_targets                0                       # number of cycles access was blocked
system.l2.blocked::no_mshrs                         0                       # number of cycles access was blocked
system.l2.blocked::no_targets                       0                       # number of cycles access was blocked
system.l2.avg_blocked_cycles::no_mshrs            nan                       # average number of cycles each access was blocked
system.l2.avg_blocked_cycles::no_targets          nan                       # average number of cycles each access was blocked
system.l2.writebacks::.writebacks              111096                       # number of writebacks
system.l2.writebacks::total                    111096                       # number of writebacks
system.l2.demand_mshr_hits::.cpu.data               4                       # number of demand (read+write) MSHR hits
system.l2.demand_mshr_hits::total                   4                       # number of demand (read+write) MSHR hits
system.l2.overall_mshr_hits::.cpu.data              4                       # number of overall MSHR hits
system.l2.overall_mshr_hits::total                  4                       # number of overall MSHR hits
system.l2.demand_mshr_misses::.cpu.inst           765                       # number of demand (read+write) MSHR misses
system.l2.demand_mshr_misses::.cpu.data        200361                       # number of demand (read+write) MSHR misses
system.l2.demand_mshr_misses::total            201126                       # number of demand (read+write) MSHR misses
system.l2.overall_mshr_misses::.cpu.inst          765                       # number of overall MSHR misses
system.l2.overall_mshr_misses::.cpu.data       200361                       # number of overall MSHR misses
system.l2.overall_mshr_misses::total           201126                       # number of overall MSHR misses
system.l2.demand_mshr_miss_latency::.cpu.inst     52509500                       # number of demand (read+write) MSHR miss cycles
system.l2.demand_mshr_miss_latency::.cpu.data  14936032000                       # number of demand (read+write) MSHR miss cycles
system.l2.demand_mshr_miss_latency::total  14988541500                       # number of demand (read+write) MSHR miss cycles
system.l2.overall_mshr_miss_latency::.cpu.inst     52509500                       # number of overall MSHR miss cycles
system.l2.overall_mshr_miss_latency::.cpu.data  14936032000                       # number of overall MSHR miss cycles
system.l2.overall_mshr_miss_latency::total  14988541500                       # number of overall MSHR miss cycles
system.l2.demand_mshr_miss_rate::.cpu.inst     0.044166                       # mshr miss rate for demand accesses
system.l2.demand_mshr_miss_rate::.cpu.data     0.281530                       # mshr miss rate for demand accesses
system.l2.demand_mshr_miss_rate::total       0.275890                       # mshr miss rate for demand accesses
system.l2.overall_mshr_miss_rate::.cpu.inst     0.044166                       # mshr miss rate for overall accesses
system.l2.overall_mshr_miss_rate::.cpu.data     0.281530                       # mshr miss rate for overall accesses
system.l2.overall_mshr_miss_rate::total      0.275890                       # mshr miss rate for overall accesses
system.l2.demand_avg_mshr_miss_latency::.cpu.inst 68639.869281                       # average overall mshr miss latency
system.l2.demand_avg_mshr_miss_latency::.cpu.data 74545.605183                       # average overall mshr miss latency
system.l2.demand_avg_mshr_miss_latency::total 74523.142209                       # average overall mshr miss latency
system.l2.overall_avg_mshr_miss_latency::.cpu.inst 68639.869281                       # average overall mshr miss latency
system.l2.overall_avg_mshr_miss_latency::.cpu.data 74545.605183                       # average overall mshr miss latency
system.l2.overall_avg_mshr_miss_latency::total 74523.142209                       # average overall mshr miss latency
system.l2.replacements                         168504                       # number of replacements
system.l2.WritebackDirty_hits::.writebacks       635620                       # number of WritebackDirty hits
system.l2.WritebackDirty_hits::total           635620                       # number of WritebackDirty hits
system.l2.WritebackDirty_accesses::.writebacks       635620                       # number of WritebackDirty accesses(hits+misses)
system.l2.WritebackDirty_accesses::total       635620                       # number of WritebackDirty accesses(hits+misses)
system.l2.WritebackClean_hits::.writebacks        16505                       # number of WritebackClean hits
system.l2.WritebackClean_hits::total            16505                       # number of WritebackClean hits
system.l2.WritebackClean_accesses::.writebacks        16505                       # number of WritebackClean accesses(hits+misses)
system.l2.WritebackClean_accesses::total        16505                       # number of WritebackClean accesses(hits+misses)
system.l2.ReadExReq_hits::.cpu.data            150253                       # number of ReadExReq hits
system.l2.ReadExReq_hits::total                150253                       # number of ReadExReq hits
system.l2.ReadExReq_misses::.cpu.data          136102                       # number of ReadExReq misses
system.l2.ReadExReq_misses::total              136102                       # number of ReadExReq misses
system.l2.ReadExReq_miss_latency::.cpu.data  11812742500                       # number of ReadExReq miss cycles
system.l2.ReadExReq_miss_latency::total   11812742500                       # number of ReadExReq miss cycles
system.l2.ReadExReq_accesses::.cpu.data        286355                       # number of ReadExReq accesses(hits+misses)
system.l2.ReadExReq_accesses::total            286355                       # number of ReadExReq accesses(hits+misses)
system.l2.ReadExReq_miss_rate::.cpu.data     0.475291                       # miss rate for ReadExReq accesses
system.l2.ReadExReq_miss_rate::total         0.475291                       # miss rate for ReadExReq accesses
system.l2.ReadExReq_avg_miss_latency::.cpu.data 86793.305756                       # average ReadExReq miss latency
system.l2.ReadExReq_avg_miss_latency::total 86793.305756                       # average ReadExReq miss latency
system.l2.ReadExReq_mshr_misses::.cpu.data       136102                       # number of ReadExReq MSHR misses
system.l2.ReadExReq_mshr_misses::total         136102                       # number of ReadExReq MSHR misses
system.l2.ReadExReq_mshr_miss_latency::.cpu.data  10451722500                       # number of ReadExReq MSHR miss cycles
system.l2.ReadExReq_mshr_miss_latency::total  10451722500                       # number of ReadExReq MSHR miss cycles
system.l2.ReadExReq_mshr_miss_rate::.cpu.data     0.475291                       # mshr miss rate for ReadExReq accesses
system.l2.ReadExReq_mshr_miss_rate::total     0.475291                       # mshr miss rate for ReadExReq accesses
system.l2.ReadExReq_avg_mshr_miss_latency::.cpu.data 76793.305756                       # average ReadExReq mshr miss latency
system.l2.ReadExReq_avg_mshr_miss_latency::total 76793.305756                       # average ReadExReq mshr miss latency
system.l2.ReadCleanReq_hits::.cpu.inst          16556                       # number of ReadCleanReq hits
system.l2.ReadCleanReq_hits::total              16556                       # number of ReadCleanReq hits
system.l2.ReadCleanReq_misses::.cpu.inst          765                       # number of ReadCleanReq misses
system.l2.ReadCleanReq_misses::total              765                       # number of ReadCleanReq misses
system.l2.ReadCleanReq_miss_latency::.cpu.inst     60159500                       # number of ReadCleanReq miss cycles
system.l2.ReadCleanReq_miss_latency::total     60159500                       # number of ReadCleanReq miss cycles
system.l2.ReadCleanReq_accesses::.cpu.inst        17321                       # number of ReadCleanReq accesses(hits+misses)
system.l2.ReadCleanReq_accesses::total          17321                       # number of ReadCleanReq accesses(hits+misses)
system.l2.ReadCleanReq_miss_rate::.cpu.inst     0.044166                       # miss rate for ReadCleanReq accesses
system.l2.ReadCleanReq_miss_rate::total      0.044166                       # miss rate for ReadCleanReq accesses
system.l2.ReadCleanReq_avg_miss_latency::.cpu.inst 78639.869281                       # average ReadCleanReq miss latency
system.l2.ReadCleanReq_avg_miss_latency::total 78639.869281                       # average ReadCleanReq miss latency
system.l2.ReadCleanReq_mshr_misses::.cpu.inst          765                       # number of ReadCleanReq MSHR misses
system.l2.ReadCleanReq_mshr_misses::total          765                       # number of ReadCleanReq MSHR misses
system.l2.ReadCleanReq_mshr_miss_latency::.cpu.inst     52509500                       # number of ReadCleanReq MSHR miss cycles
system.l2.ReadCleanReq_mshr_miss_latency::total     52509500                       # number of ReadCleanReq MSHR miss cycles
system.l2.ReadCleanReq_mshr_miss_rate::.cpu.inst     0.044166                       # mshr miss rate for ReadCleanReq accesses
system.l2.ReadCleanReq_mshr_miss_rate::total     0.044166                       # mshr miss rate for ReadCleanReq accesses
system.l2.ReadCleanReq_avg_mshr_miss_latency::.cpu.inst 68639.869281                       # average ReadCleanReq mshr miss latency
system.l2.ReadCleanReq_avg_mshr_miss_latency::total 68639.869281                       # average ReadCleanReq mshr miss latency
system.l2.ReadSharedReq_hits::.cpu.data        361069                       # number of ReadSharedReq hits
system.l2.ReadSharedReq_hits::total            361069                       # number of ReadSharedReq hits
system.l2.ReadSharedReq_misses::.cpu.data        64263                       # number of ReadSharedReq misses
system.l2.ReadSharedReq_misses::total           64263                       # number of ReadSharedReq misses
system.l2.ReadSharedReq_miss_latency::.cpu.data   5127143500                       # number of ReadSharedReq miss cycles
system.l2.ReadSharedReq_miss_latency::total   5127143500                       # number of ReadSharedReq miss cycles
system.l2.ReadSharedReq_accesses::.cpu.data       425332                       # number of ReadSharedReq accesses(hits+misses)
system.l2.ReadSharedReq_accesses::total        425332                       # number of ReadSharedReq accesses(hits+misses)
system.l2.ReadSharedReq_miss_rate::.cpu.data     0.151089                       # miss rate for ReadSharedReq accesses
system.l2.ReadSharedReq_miss_rate::total     0.151089                       # miss rate for ReadSharedReq accesses
system.l2.ReadSharedReq_avg_miss_latency::.cpu.data 79783.755816                       # average ReadSharedReq miss latency
system.l2.ReadSharedReq_avg_miss_latency::total 79783.755816                       # average ReadSharedReq miss latency
system.l2.ReadSharedReq_mshr_hits::.cpu.data            4                       # number of ReadSharedReq MSHR hits
system.l2.ReadSharedReq_mshr_hits::total            4                       # number of ReadSharedReq MSHR hits
system.l2.ReadSharedReq_mshr_misses::.cpu.data        64259                       # number of ReadSharedReq MSHR misses
system.l2.ReadSharedReq_mshr_misses::total        64259                       # number of ReadSharedReq MSHR misses
system.l2.ReadSharedReq_mshr_miss_latency::.cpu.data   4484309500                       # number of ReadSharedReq MSHR miss cycles
system.l2.ReadSharedReq_mshr_miss_latency::total   4484309500                       # number of ReadSharedReq MSHR miss cycles
system.l2.ReadSharedReq_mshr_miss_rate::.cpu.data     0.151080                       # mshr miss rate for ReadSharedReq accesses
system.l2.ReadSharedReq_mshr_miss_rate::total     0.151080                       # mshr miss rate for ReadSharedReq accesses
system.l2.ReadSharedReq_avg_mshr_miss_latency::.cpu.data 69784.925069                       # average ReadSharedReq mshr miss latency
system.l2.ReadSharedReq_avg_mshr_miss_latency::total 69784.925069                       # average ReadSharedReq mshr miss latency
system.l2.tags.pwrStateResidencyTicks::UNDEFINED  84093845000                       # Cumulative time (in ticks) in various power states
system.l2.tags.tagsinuse                 31905.498043                       # Cycle average of tags in use
system.l2.tags.total_refs                     1456101                       # Total number of references to valid blocks.
system.l2.tags.sampled_refs                    201272                       # Sample count of references to valid blocks.
system.l2.tags.avg_refs                      7.234494                       # Average number of references to valid blocks.
system.l2.tags.warmup_cycle                     77000                       # Cycle when the warmup percentage was hit.
system.l2.tags.occ_blocks::.writebacks      40.487875                       # Average occupied blocks per requestor
system.l2.tags.occ_blocks::.cpu.inst       138.637683                       # Average occupied blocks per requestor
system.l2.tags.occ_blocks::.cpu.data     31726.372485                       # Average occupied blocks per requestor
system.l2.tags.occ_percent::.writebacks      0.001236                       # Average percentage of cache occupancy
system.l2.tags.occ_percent::.cpu.inst        0.004231                       # Average percentage of cache occupancy
system.l2.tags.occ_percent::.cpu.data        0.968212                       # Average percentage of cache occupancy
system.l2.tags.occ_percent::total            0.973679                       # Average percentage of cache occupancy
system.l2.tags.occ_task_id_blocks::1024         32768                       # Occupied blocks per task id
system.l2.tags.age_task_id_blocks_1024::0           72                       # Occupied blocks per task id
system.l2.tags.age_task_id_blocks_1024::1          123                       # Occupied blocks per task id
system.l2.tags.age_task_id_blocks_1024::2         1174                       # Occupied blocks per task id
system.l2.tags.age_task_id_blocks_1024::3        15697                       # Occupied blocks per task id
system.l2.tags.age_task_id_blocks_1024::4        15702                       # Occupied blocks per task id
system.l2.tags.occ_task_id_percent::1024            1                       # Percentage of cache occupancy per task id
system.l2.tags.tag_accesses                  11850112                       # Number of tag accesses
system.l2.tags.data_accesses                 11850112                       # Number of data accesses
system.cpu_voltage_domain.voltage                   1                       # Voltage in Volts
system.mem_ctrls.pwrStateResidencyTicks::UNDEFINED  84093845000                       # Cumulative time (in ticks) in various power states
system.mem_ctrls.bytes_read::.cpu.inst          48960                       # Number of bytes read from this memory
system.mem_ctrls.bytes_read::.cpu.data       12823104                       # Number of bytes read from this memory
system.mem_ctrls.bytes_read::total           12872064                       # Number of bytes read from this memory
system.mem_ctrls.bytes_inst_read::.cpu.inst        48960                       # Number of instructions bytes read from this memory
system.mem_ctrls.bytes_inst_read::total         48960                       # Number of instructions bytes read from this memory
system.mem_ctrls.bytes_written::.writebacks      7110144                       # Number of bytes written to this memory
system.mem_ctrls.bytes_written::total         7110144                       # Number of bytes written to this memory
system.mem_ctrls.num_reads::.cpu.inst             765                       # Number of read requests responded to by this memory
system.mem_ctrls.num_reads::.cpu.data          200361                       # Number of read requests responded to by this memory
system.mem_ctrls.num_reads::total              201126                       # Number of read requests responded to by this memory
system.mem_ctrls.num_writes::.writebacks       111096                       # Number of write requests responded to by this memory
system.mem_ctrls.num_writes::total             111096                       # Number of write requests responded to by this memory
system.mem_ctrls.bw_read::.cpu.inst            582207                       # Total read bandwidth from this memory (bytes/s)
system.mem_ctrls.bw_read::.cpu.data         152485643                       # Total read bandwidth from this memory (bytes/s)
system.mem_ctrls.bw_read::total             153067849                       # Total read bandwidth from this memory (bytes/s)
system.mem_ctrls.bw_inst_read::.cpu.inst       582207                       # Instruction read bandwidth from this memory (bytes/s)
system.mem_ctrls.bw_inst_read::total           582207                       # Instruction read bandwidth from this memory (bytes/s)
system.mem_ctrls.bw_write::.writebacks       84550112                       # Write bandwidth from this memory (bytes/s)
system.mem_ctrls.bw_write::total             84550112                       # Write bandwidth from this memory (bytes/s)
system.mem_ctrls.bw_total::.writebacks       84550112                       # Total bandwidth to/from this memory (bytes/s)
system.mem_ctrls.bw_total::.cpu.inst           582207                       # Total bandwidth to/from this memory (bytes/s)
system.mem_ctrls.bw_total::.cpu.data        152485643                       # Total bandwidth to/from this memory (bytes/s)
system.mem_ctrls.bw_total::total            237617961                       # Total bandwidth to/from this memory (bytes/s)
system.mem_ctrls.avgPriority_.writebacks::samples    111096.00                       # Average QoS priority value for accepted requests
system.mem_ctrls.avgPriority_.cpu.inst::samples       765.00                       # Average QoS priority value for accepted requests
system.mem_ctrls.avgPriority_.cpu.data::samples    200334.00                       # Average QoS priority value for accepted requests
system.mem_ctrls.priorityMinLatency      0.000000018750                       # per QoS priority minimum request to response latency (s)
system.mem_ctrls.priorityMaxLatency      0.003023694500                       # per QoS priority maximum request to response latency (s)
system.mem_ctrls.numReadWriteTurnArounds         6647                       # Number of turnarounds from READ to WRITE
system.mem_ctrls.numWriteReadTurnArounds         6647                       # Number of turnarounds from WRITE to READ
system.mem_ctrls.numStayReadState              524713                       # Number of times bus staying in READ state
system.mem_ctrls.numStayWriteState             104578                       # Number of times bus staying in WRITE state
system.mem_ctrls.readReqs                      201126                       # Number of read requests accepted
system.mem_ctrls.writeReqs                     111096                       # Number of write requests accepted
system.mem_ctrls.readBursts                    201126                       # Number of DRAM read bursts, including those serviced by the write queue
system.mem_ctrls.writeBursts                   111096                       # Number of DRAM write bursts, including those merged in the write queue
system.mem_ctrls.servicedByWrQ                     27                       # Number of DRAM read bursts serviced by the write queue
system.mem_ctrls.mergedWrBursts                     0                       # Number of DRAM write bursts merged with an existing one
system.mem_ctrls.neitherReadNorWriteReqs            0                       # Number of requests that are neither read nor write
system.mem_ctrls.perBankRdBursts::0             12885                       # Per bank write bursts
system.mem_ctrls.perBankRdBursts::1             12755                       # Per bank write bursts
system.mem_ctrls.perBankRdBursts::2             12834                       # Per bank write bursts
system.mem_ctrls.perBankRdBursts::3             12562                       # Per bank write bursts
system.mem_ctrls.perBankRdBursts::4             12515                       # Per bank write bursts
system.mem_ctrls.perBankRdBursts::5             12343                       # Per bank write bursts
system.mem_ctrls.perBankRdBursts::6             12293                       # Per bank write bursts
system.mem_ctrls.perBankRdBursts::7             12463                       # Per bank write bursts
system.mem_ctrls.perBankRdBursts::8             12454                       # Per bank write bursts
system.mem_ctrls.perBankRdBursts::9             12404                       # Per bank write bursts
system.mem_ctrls.perBankRdBursts::10            12452                       # Per bank write bursts
system.mem_ctrls.perBankRdBursts::11            12475                       # Per bank write bursts
system.mem_ctrls.perBankRdBursts::12            12664                       # Per bank write bursts
system.mem_ctrls.perBankRdBursts::13            12710                       # Per bank write bursts
system.mem_ctrls.perBankRdBursts::14            12673                       # Per bank write bursts
system.mem_ctrls.perBankRdBursts::15            12617                       # Per bank write bursts
system.mem_ctrls.perBankWrBursts::0              7124                       # Per bank write bursts
system.mem_ctrls.perBankWrBursts::1              7158                       # Per bank write bursts
system.mem_ctrls.perBankWrBursts::2              7167                       # Per bank write bursts
system.mem_ctrls.perBankWrBursts::3              6990                       # Per bank write bursts
system.mem_ctrls.perBankWrBursts::4              6976                       # Per bank write bursts
system.mem_ctrls.perBankWrBursts::5              6931                       # Per bank write bursts
system.mem_ctrls.perBankWrBursts::6              6826                       # Per bank write bursts
system.mem_ctrls.perBankWrBursts::7              6801                       # Per bank write bursts
system.mem_ctrls.perBankWrBursts::8              6794                       # Per bank write bursts
system.mem_ctrls.perBankWrBursts::9              6769                       # Per bank write bursts
system.mem_ctrls.perBankWrBursts::10             6861                       # Per bank write bursts
system.mem_ctrls.perBankWrBursts::11             6808                       # Per bank write bursts
system.mem_ctrls.perBankWrBursts::12             6896                       # Per bank write bursts
system.mem_ctrls.perBankWrBursts::13             6990                       # Per bank write bursts
system.mem_ctrls.perBankWrBursts::14             7007                       # Per bank write bursts
system.mem_ctrls.perBankWrBursts::15             6967                       # Per bank write bursts
system.mem_ctrls.avgRdQLen                       1.08                       # Average read queue length when enqueuing
system.mem_ctrls.avgWrQLen                      24.65                       # Average write queue length when enqueuing
system.mem_ctrls.totQLat                   2918945750                       # Total ticks spent queuing
system.mem_ctrls.totBusLat                 1005495000                       # Total ticks spent in databus transfers
system.mem_ctrls.totMemAccLat              6689552000                       # Total ticks spent from burst creation until serviced by the DRAM
system.mem_ctrls.avgQLat                     14514.97                       # Average queueing delay per DRAM burst
system.mem_ctrls.avgBusLat                    5000.00                       # Average bus latency per DRAM burst
system.mem_ctrls.avgMemAccLat                33264.97                       # Average memory access latency per DRAM burst
system.mem_ctrls.numRdRetry                         0                       # Number of times read queue was full causing retry
system.mem_ctrls.numWrRetry                         0                       # Number of times write queue was full causing retry
system.mem_ctrls.readRowHits                   138036                       # Number of row buffer hits during reads
system.mem_ctrls.writeRowHits                   69660                       # Number of row buffer hits during writes
system.mem_ctrls.readRowHitRate                 68.64                       # Row buffer hit rate for reads
system.mem_ctrls.writeRowHitRate                62.70                       # Row buffer hit rate for writes
system.mem_ctrls.readPktSize::0                     0                       # Read request sizes (log2)
system.mem_ctrls.readPktSize::1                     0                       # Read request sizes (log2)
system.mem_ctrls.readPktSize::2                     0                       # Read request sizes (log2)
system.mem_ctrls.readPktSize::3                     0                       # Read request sizes (log2)
system.mem_ctrls.readPktSize::4                     0                       # Read request sizes (log2)
system.mem_ctrls.readPktSize::5                     0                       # Read request sizes (log2)
system.mem_ctrls.readPktSize::6                201126                       # Read request sizes (log2)
system.mem_ctrls.writePktSize::0                    0                       # Write request sizes (log2)
system.mem_ctrls.writePktSize::1                    0                       # Write request sizes (log2)
system.mem_ctrls.writePktSize::2                    0                       # Write request sizes (log2)
system.mem_ctrls.writePktSize::3                    0                       # Write request sizes (log2)
system.mem_ctrls.writePktSize::4                    0                       # Write request sizes (log2)
system.mem_ctrls.writePktSize::5                    0                       # Write request sizes (log2)
system.mem_ctrls.writePktSize::6               111096                       # Write request sizes (log2)
system.mem_ctrls.rdQLenPdf::0                  140733                       # What read queue length does an incoming req see
system.mem_ctrls.rdQLenPdf::1                   57670                       # What read queue length does an incoming req see
system.mem_ctrls.rdQLenPdf::2                    2393                       # What read queue length does an incoming req see
system.mem_ctrls.rdQLenPdf::3                     302                       # What read queue length does an incoming req see
system.mem_ctrls.rdQLenPdf::4                       1                       # What read queue length does an incoming req see
system.mem_ctrls.rdQLenPdf::5                       0                       # What read queue length does an incoming req see
system.mem_ctrls.rdQLenPdf::6                       0                       # What read queue length does an incoming req see
system.mem_ctrls.rdQLenPdf::7                       0                       # What read queue length does an incoming req see
system.mem_ctrls.rdQLenPdf::8                       0                       # What read queue length does an incoming req see
system.mem_ctrls.rdQLenPdf::9                       0                       # What read queue length does an incoming req see
system.mem_ctrls.rdQLenPdf::10                      0                       # What read queue length does an incoming req see
system.mem_ctrls.rdQLenPdf::11                      0                       # What read queue length does an incoming req see
system.mem_ctrls.rdQLenPdf::12                      0                       # What read queue length does an incoming req see
system.mem_ctrls.rdQLenPdf::13                      0                       # What read queue length does an incoming req see
system.mem_ctrls.rdQLenPdf::14                      0                       # What read queue length does an incoming req see
system.mem_ctrls.rdQLenPdf::15                      0                       # What read queue length does an incoming req see
system.mem_ctrls.rdQLenPdf::16                      0                       # What read queue length does an incoming req see
system.mem_ctrls.rdQLenPdf::17                      0                       # What read queue length does an incoming req see
system.mem_ctrls.rdQLenPdf::18                      0                       # What read queue length does an incoming req see
system.mem_ctrls.rdQLenPdf::19                      0                       # What read queue length does an incoming req see
system.mem_ctrls.rdQLenPdf::20                      0                       # What read queue length does an incoming req see
system.mem_ctrls.rdQLenPdf::21                      0                       # What read queue length does an incoming req see
system.mem_ctrls.rdQLenPdf::22                      0                       # What read queue length does an incoming req see
system.mem_ctrls.rdQLenPdf::23                      0                       # What read queue length does an incoming req see
system.mem_ctrls.rdQLenPdf::24                      0                       # What read queue length does an incoming req see
system.mem_ctrls.rdQLenPdf::25                      0                       # What read queue length does an incoming req see
system.mem_ctrls.rdQLenPdf::26                      0                       # What read queue length does an incoming req see
system.mem_ctrls.rdQLenPdf::27                      0                       # What read queue length does an incoming req see
system.mem_ctrls.rdQLenPdf::28                      0                       # What read queue length does an incoming req see
system.mem_ctrls.rdQLenPdf::29                      0                       # What read queue length does an incoming req see
system.mem_ctrls.rdQLenPdf::30                      0                       # What read queue length does an incoming req see
system.mem_ctrls.rdQLenPdf::31                      0                       # What read queue length does an incoming req see
system.mem_ctrls.wrQLenPdf::0                       1                       # What write queue length does an incoming req see
system.mem_ctrls.wrQLenPdf::1                       1                       # What write queue length does an incoming req see
system.mem_ctrls.wrQLenPdf::2                       1                       # What write queue length does an incoming req see
system.mem_ctrls.wrQLenPdf::3                       1                       # What write queue length does an incoming req see
system.mem_ctrls.wrQLenPdf::4                       1                       # What write queue length does an incoming req see
system.mem_ctrls.wrQLenPdf::5                       1                       # What write queue length does an incoming req see
system.mem_ctrls.wrQLenPdf::6                       1                       # What write queue length does an incoming req see
system.mem_ctrls.wrQLenPdf::7                       1                       # What write queue length does an incoming req see
system.mem_ctrls.wrQLenPdf::8                       1                       # What write queue length does an incoming req see
system.mem_ctrls.wrQLenPdf::9                       1                       # What write queue length does an incoming req see
system.mem_ctrls.wrQLenPdf::10                      1                       # What write queue length does an incoming req see
system.mem_ctrls.wrQLenPdf::11                      1                       # What write queue length does an incoming req see
system.mem_ctrls.wrQLenPdf::12                      1                       # What write queue length does an incoming req see
system.mem_ctrls.wrQLenPdf::13                      1                       # What write queue length does an incoming req see
system.mem_ctrls.wrQLenPdf::14                      1                       # What write queue length does an incoming req see
system.mem_ctrls.wrQLenPdf::15                   2241                       # What write queue length does an incoming req see
system.mem_ctrls.wrQLenPdf::16                   2273                       # What write queue length does an incoming req see
system.mem_ctrls.wrQLenPdf::17                   5706                       # What write queue length does an incoming req see
system.mem_ctrls.wrQLenPdf::18                   6721                       # What write queue length does an incoming req see
system.mem_ctrls.wrQLenPdf::19                   6711                       # What write queue length does an incoming req see
system.mem_ctrls.wrQLenPdf::20                   6876                       # What write queue length does an incoming req see
system.mem_ctrls.wrQLenPdf::21                   6686                       # What write queue length does an incoming req see
system.mem_ctrls.wrQLenPdf::22                   6707                       # What write queue length does an incoming req see
system.mem_ctrls.wrQLenPdf::23                   6716                       # What write queue length does an incoming req see
system.mem_ctrls.wrQLenPdf::24                   6764                       # What write queue length does an incoming req see
system.mem_ctrls.wrQLenPdf::25                   6812                       # What write queue length does an incoming req see
system.mem_ctrls.wrQLenPdf::26                   6709                       # What write queue length does an incoming req see
system.mem_ctrls.wrQLenPdf::27                   6680                       # What write queue length does an incoming req see
system.mem_ctrls.wrQLenPdf::28                   6781                       # What write queue length does an incoming req see
system.mem_ctrls.wrQLenPdf::29                   6722                       # What write queue length does an incoming req see
system.mem_ctrls.wrQLenPdf::30                   6665                       # What write queue length does an incoming req see
system.mem_ctrls.wrQLenPdf::31                   6661                       # What write queue length does an incoming req see
system.mem_ctrls.wrQLenPdf::32                   6648                       # What write queue length does an incoming req see
system.mem_ctrls.wrQLenPdf::33                      2                       # What write queue length does an incoming req see
system.mem_ctrls.wrQLenPdf::34                      0                       # What write queue length does an incoming req see
system.mem_ctrls.wrQLenPdf::35                      0                       # What write queue length does an incoming req see
system.mem_ctrls.wrQLenPdf::36                      0                       # What write queue length does an incoming req see
system.mem_ctrls.wrQLenPdf::37                      0                       # What write queue length does an incoming req see
system.mem_ctrls.wrQLenPdf::38                      0                       # What write queue length does an incoming req see
system.mem_ctrls.wrQLenPdf::39                      0                       # What write queue length does an incoming req see
system.mem_ctrls.wrQLenPdf::40                      0                       # What write queue length does an incoming req see
system.mem_ctrls.wrQLenPdf::41                      0                       # What write queue length does an incoming req see
system.mem_ctrls.wrQLenPdf::42                      0                       # What write queue length does an incoming req see
system.mem_ctrls.wrQLenPdf::43                      0                       # What write queue length does an incoming req see
system.mem_ctrls.wrQLenPdf::44                      0                       # What write queue length does an incoming req see
system.mem_ctrls.wrQLenPdf::45                      0                       # What write queue length does an incoming req see
system.mem_ctrls.wrQLenPdf::46                      0                       # What write queue length does an incoming req see
system.mem_ctrls.wrQLenPdf::47                      0                       # What write queue length does an incoming req see
system.mem_ctrls.wrQLenPdf::48                      0                       # What write queue length does an incoming req see
system.mem_ctrls.wrQLenPdf::49                      0                       # What write queue length does an incoming req see
system.mem_ctrls.wrQLenPdf::50                      0                       # What write queue length does an incoming req see
system.mem_ctrls.wrQLenPdf::51                      0                       # What write queue length does an incoming req see
system.mem_ctrls.wrQLenPdf::52                      0                       # What write queue length does an incoming req see
system.mem_ctrls.wrQLenPdf::53                      0                       # What write queue length does an incoming req see
system.mem_ctrls.wrQLenPdf::54                      0                       # What write queue length does an incoming req see
system.mem_ctrls.wrQLenPdf::55                      0                       # What write queue length does an incoming req see
system.mem_ctrls.wrQLenPdf::56                      0                       # What write queue length does an incoming req see
system.mem_ctrls.wrQLenPdf::57                      0                       # What write queue length does an incoming req see
system.mem_ctrls.wrQLenPdf::58                      0                       # What write queue length does an incoming req see
system.mem_ctrls.wrQLenPdf::59                      0                       # What write queue length does an incoming req see
system.mem_ctrls.wrQLenPdf::60                      0                       # What write queue length does an incoming req see
system.mem_ctrls.wrQLenPdf::61                      0                       # What write queue length does an incoming req see
system.mem_ctrls.wrQLenPdf::62                      0                       # What write queue length does an incoming req see
system.mem_ctrls.wrQLenPdf::63                      0                       # What write queue length does an incoming req see
system.mem_ctrls.bytesPerActivate::samples       104458                       # Bytes accessed per row activation
system.mem_ctrls.bytesPerActivate::mean    191.251910                       # Bytes accessed per row activation
system.mem_ctrls.bytesPerActivate::gmean   111.566078                       # Bytes accessed per row activation
system.mem_ctrls.bytesPerActivate::stdev   255.744435                       # Bytes accessed per row activation
system.mem_ctrls.bytesPerActivate::0-127        69144     66.19%     66.19% # Bytes accessed per row activation
system.mem_ctrls.bytesPerActivate::128-255        14113     13.51%     79.70% # Bytes accessed per row activation
system.mem_ctrls.bytesPerActivate::256-383         2370      2.27%     81.97% # Bytes accessed per row activation
system.mem_ctrls.bytesPerActivate::384-511         1639      1.57%     83.54% # Bytes accessed per row activation
system.mem_ctrls.bytesPerActivate::512-639         9759      9.34%     92.88% # Bytes accessed per row activation
system.mem_ctrls.bytesPerActivate::640-767         1012      0.97%     93.85% # Bytes accessed per row activation
system.mem_ctrls.bytesPerActivate::768-895          377      0.36%     94.21% # Bytes accessed per row activation
system.mem_ctrls.bytesPerActivate::896-1023          385      0.37%     94.58% # Bytes accessed per row activation
system.mem_ctrls.bytesPerActivate::1024-1151         5659      5.42%    100.00% # Bytes accessed per row activation
system.mem_ctrls.bytesPerActivate::total       104458                       # Bytes accessed per row activation
system.mem_ctrls.rdPerTurnAround::samples         6647                       # Reads before turning the bus around for writes
system.mem_ctrls.rdPerTurnAround::mean      30.251843                       # Reads before turning the bus around for writes
system.mem_ctrls.rdPerTurnAround::gmean     23.789435                       # Reads before turning the bus around for writes
system.mem_ctrls.rdPerTurnAround::stdev     52.364904                       # Reads before turning the bus around for writes
system.mem_ctrls.rdPerTurnAround::0-127          6488     97.61%     97.61% # Reads before turning the bus around for writes
system.mem_ctrls.rdPerTurnAround::128-255           29      0.44%     98.04% # Reads before turning the bus around for writes
system.mem_ctrls.rdPerTurnAround::256-383          127      1.91%     99.95% # Reads before turning the bus around for writes
system.mem_ctrls.rdPerTurnAround::640-767            1      0.02%     99.97% # Reads before turning the bus around for writes
system.mem_ctrls.rdPerTurnAround::1664-1791            1      0.02%     99.98% # Reads before turning the bus around for writes
system.mem_ctrls.rdPerTurnAround::2432-2559            1      0.02%    100.00% # Reads before turning the bus around for writes
system.mem_ctrls.rdPerTurnAround::total          6647                       # Reads before turning the bus around for writes
system.mem_ctrls.wrPerTurnAround::samples         6647                       # Writes before turning the bus around for reads
system.mem_ctrls.wrPerTurnAround::mean      16.709042                       # Writes before turning the bus around for reads
[...]
system.cpu.icache.ReadReq_mshr_miss_latency::.cpu.inst    261223000                       # number of ReadReq MSHR miss cycles
system.cpu.icache.ReadReq_mshr_miss_latency::total    261223000                       # number of ReadReq MSHR miss cycles
system.cpu.icache.ReadReq_mshr_miss_rate::.cpu.inst     0.001794                       # mshr miss rate for ReadReq accesses
system.cpu.icache.ReadReq_mshr_miss_rate::total     0.001794                       # mshr miss rate for ReadReq accesses
system.cpu.icache.ReadReq_avg_mshr_miss_latency::.cpu.inst 15081.288609                       # average ReadReq mshr miss latency
system.cpu.icache.ReadReq_avg_mshr_miss_latency::total 15081.288609                       # average ReadReq mshr miss latency
system.cpu.icache.tags.pwrStateResidencyTicks::UNDEFINED  84093845000                       # Cumulative time (in ticks) in various power states
system.cpu.icache.tags.tagsinuse            63.996473                       # Cycle average of tags in use
system.cpu.icache.tags.total_refs             9655603                       # Total number of references to valid blocks.
system.cpu.icache.tags.sampled_refs             17321                       # Sample count of references to valid blocks.
system.cpu.icache.tags.avg_refs            557.450667                       # Average number of references to valid blocks.
system.cpu.icache.tags.warmup_cycle             87500                       # Cycle when the warmup percentage was hit.
system.cpu.icache.tags.occ_blocks::.cpu.inst    63.996473                       # Average occupied blocks per requestor
system.cpu.icache.tags.occ_percent::.cpu.inst     0.999945                       # Average percentage of cache occupancy
system.cpu.icache.tags.occ_percent::total     0.999945                       # Average percentage of cache occupancy
system.cpu.icache.tags.occ_task_id_blocks::1024           64                       # Occupied blocks per task id
system.cpu.icache.tags.age_task_id_blocks_1024::0            5                       # Occupied blocks per task id
system.cpu.icache.tags.age_task_id_blocks_1024::1           43                       # Occupied blocks per task id
system.cpu.icache.tags.age_task_id_blocks_1024::2           11                       # Occupied blocks per task id
system.cpu.icache.tags.age_task_id_blocks_1024::3            5                       # Occupied blocks per task id
system.cpu.icache.tags.occ_task_id_percent::1024            1                       # Percentage of cache occupancy per task id
system.cpu.icache.tags.tag_accesses          19328527                       # Number of tag accesses
system.cpu.icache.tags.data_accesses         19328527                       # Number of data accesses
system.cpu.dtb.walker.pwrStateResidencyTicks::UNDEFINED  84093845000                       # Cumulative time (in ticks) in various power states
system.cpu.dtb.stage2_mmu.stage2_tlb.walker.pwrStateResidencyTicks::UNDEFINED  84093845000                       # Cumulative time (in ticks) in various power states
system.cpu.dcache.pwrStateResidencyTicks::UNDEFINED  84093845000                       # Cumulative time (in ticks) in various power states
system.cpu.dcache.demand_hits::.cpu.data     51305931                       # number of demand (read+write) hits
system.cpu.dcache.demand_hits::total         51305931                       # number of demand (read+write) hits
system.cpu.dcache.overall_hits::.cpu.data     51306440                       # number of overall hits
system.cpu.dcache.overall_hits::total        51306440                       # number of overall hits
system.cpu.dcache.demand_misses::.cpu.data       762827                       # number of demand (read+write) misses
system.cpu.dcache.demand_misses::total         762827                       # number of demand (read+write) misses
system.cpu.dcache.overall_misses::.cpu.data       770737                       # number of overall misses
system.cpu.dcache.overall_misses::total        770737                       # number of overall misses
system.cpu.dcache.demand_miss_latency::.cpu.data  25024900994                       # number of demand (read+write) miss cycles
system.cpu.dcache.demand_miss_latency::total  25024900994                       # number of demand (read+write) miss cycles
system.cpu.dcache.overall_miss_latency::.cpu.data  25024900994                       # number of overall miss cycles
system.cpu.dcache.overall_miss_latency::total  25024900994                       # number of overall miss cycles
system.cpu.dcache.demand_accesses::.cpu.data     52068758                       # number of demand (read+write) accesses
system.cpu.dcache.demand_accesses::total     52068758                       # number of demand (read+write) accesses
system.cpu.dcache.overall_accesses::.cpu.data     52077177                       # number of overall (read+write) accesses
system.cpu.dcache.overall_accesses::total     52077177                       # number of overall (read+write) accesses
system.cpu.dcache.demand_miss_rate::.cpu.data     0.014650                       # miss rate for demand accesses
system.cpu.dcache.demand_miss_rate::total     0.014650                       # miss rate for demand accesses
system.cpu.dcache.overall_miss_rate::.cpu.data     0.014800                       # miss rate for overall accesses
system.cpu.dcache.overall_miss_rate::total     0.014800                       # miss rate for overall accesses
system.cpu.dcache.demand_avg_miss_latency::.cpu.data 32805.473579                       # average overall miss latency
system.cpu.dcache.demand_avg_miss_latency::total 32805.473579                       # average overall miss latency
system.cpu.dcache.overall_avg_miss_latency::.cpu.data 32468.794146                       # average overall miss latency
system.cpu.dcache.overall_avg_miss_latency::total 32468.794146                       # average overall miss latency
system.cpu.dcache.blocked_cycles::no_mshrs       204286                       # number of cycles access was blocked
system.cpu.dcache.blocked_cycles::no_targets            0                       # number of cycles access was blocked
system.cpu.dcache.blocked::no_mshrs              3278                       # number of cycles access was blocked
system.cpu.dcache.blocked::no_targets               0                       # number of cycles access was blocked
system.cpu.dcache.avg_blocked_cycles::no_mshrs    62.320317                       # average number of cycles each access was blocked
system.cpu.dcache.avg_blocked_cycles::no_targets          nan                       # average number of cycles each access was blocked
system.cpu.dcache.writebacks::.writebacks       635620                       # number of writebacks
system.cpu.dcache.writebacks::total            635620                       # number of writebacks
system.cpu.dcache.demand_mshr_hits::.cpu.data        59045                       # number of demand (read+write) MSHR hits
system.cpu.dcache.demand_mshr_hits::total        59045                       # number of demand (read+write) MSHR hits
system.cpu.dcache.overall_mshr_hits::.cpu.data        59045                       # number of overall MSHR hits
system.cpu.dcache.overall_mshr_hits::total        59045                       # number of overall MSHR hits
system.cpu.dcache.demand_mshr_misses::.cpu.data       703782                       # number of demand (read+write) MSHR misses
system.cpu.dcache.demand_mshr_misses::total       703782                       # number of demand (read+write) MSHR misses
system.cpu.dcache.overall_mshr_misses::.cpu.data       711687                       # number of overall MSHR misses
system.cpu.dcache.overall_mshr_misses::total       711687                       # number of overall MSHR misses
system.cpu.dcache.demand_mshr_miss_latency::.cpu.data  22709322000                       # number of demand (read+write) MSHR miss cycles
system.cpu.dcache.demand_mshr_miss_latency::total  22709322000                       # number of demand (read+write) MSHR miss cycles
system.cpu.dcache.overall_mshr_miss_latency::.cpu.data  23381073999                       # number of overall MSHR miss cycles
system.cpu.dcache.overall_mshr_miss_latency::total  23381073999                       # number of overall MSHR miss cycles
system.cpu.dcache.demand_mshr_miss_rate::.cpu.data     0.013516                       # mshr miss rate for demand accesses
system.cpu.dcache.demand_mshr_miss_rate::total     0.013516                       # mshr miss rate for demand accesses
system.cpu.dcache.overall_mshr_miss_rate::.cpu.data     0.013666                       # mshr miss rate for overall accesses
system.cpu.dcache.overall_mshr_miss_rate::total     0.013666                       # mshr miss rate for overall accesses
system.cpu.dcache.demand_avg_mshr_miss_latency::.cpu.data 32267.551600                       # average overall mshr miss latency
system.cpu.dcache.demand_avg_mshr_miss_latency::total 32267.551600                       # average overall mshr miss latency
system.cpu.dcache.overall_avg_mshr_miss_latency::.cpu.data 32853.029490                       # average overall mshr miss latency
system.cpu.dcache.overall_avg_mshr_miss_latency::total 32853.029490                       # average overall mshr miss latency
system.cpu.dcache.replacements                 710663                       # number of replacements
system.cpu.dcache.ReadReq_hits::.cpu.data     40700404                       # number of ReadReq hits
system.cpu.dcache.ReadReq_hits::total        40700404                       # number of ReadReq hits
system.cpu.dcache.ReadReq_misses::.cpu.data       418037                       # number of ReadReq misses
system.cpu.dcache.ReadReq_misses::total        418037                       # number of ReadReq misses
system.cpu.dcache.ReadReq_miss_latency::.cpu.data   9330374000                       # number of ReadReq miss cycles
system.cpu.dcache.ReadReq_miss_latency::total   9330374000                       # number of ReadReq miss cycles
system.cpu.dcache.ReadReq_accesses::.cpu.data     41118441                       # number of ReadReq accesses(hits+misses)
system.cpu.dcache.ReadReq_accesses::total     41118441                       # number of ReadReq accesses(hits+misses)
system.cpu.dcache.ReadReq_miss_rate::.cpu.data     0.010167                       # miss rate for ReadReq accesses
system.cpu.dcache.ReadReq_miss_rate::total     0.010167                       # miss rate for ReadReq accesses
system.cpu.dcache.ReadReq_avg_miss_latency::.cpu.data 22319.493251                       # average ReadReq miss latency
system.cpu.dcache.ReadReq_avg_miss_latency::total 22319.493251                       # average ReadReq miss latency
system.cpu.dcache.ReadReq_mshr_hits::.cpu.data          610                       # number of ReadReq MSHR hits
system.cpu.dcache.ReadReq_mshr_hits::total          610                       # number of ReadReq MSHR hits
system.cpu.dcache.ReadReq_mshr_misses::.cpu.data       417427                       # number of ReadReq MSHR misses
system.cpu.dcache.ReadReq_mshr_misses::total       417427                       # number of ReadReq MSHR misses
system.cpu.dcache.ReadReq_mshr_miss_latency::.cpu.data   8887674000                       # number of ReadReq MSHR miss cycles
system.cpu.dcache.ReadReq_mshr_miss_latency::total   8887674000                       # number of ReadReq MSHR miss cycles
system.cpu.dcache.ReadReq_mshr_miss_rate::.cpu.data     0.010152                       # mshr miss rate for ReadReq accesses
system.cpu.dcache.ReadReq_mshr_miss_rate::total     0.010152                       # mshr miss rate for ReadReq accesses
system.cpu.dcache.ReadReq_avg_mshr_miss_latency::.cpu.data 21291.564753                       # average ReadReq mshr miss latency
system.cpu.dcache.ReadReq_avg_mshr_miss_latency::total 21291.564753                       # average ReadReq mshr miss latency
system.cpu.dcache.WriteReq_hits::.cpu.data     10605527                       # number of WriteReq hits
system.cpu.dcache.WriteReq_hits::total       10605527                       # number of WriteReq hits
system.cpu.dcache.WriteReq_misses::.cpu.data       344790                       # number of WriteReq misses
system.cpu.dcache.WriteReq_misses::total       344790                       # number of WriteReq misses
system.cpu.dcache.WriteReq_miss_latency::.cpu.data  15694526994                       # number of WriteReq miss cycles
system.cpu.dcache.WriteReq_miss_latency::total  15694526994                       # number of WriteReq miss cycles
system.cpu.dcache.WriteReq_accesses::.cpu.data     10950317                       # number of WriteReq accesses(hits+misses)
system.cpu.dcache.WriteReq_accesses::total     10950317                       # number of WriteReq accesses(hits+misses)
system.cpu.dcache.WriteReq_miss_rate::.cpu.data     0.031487                       # miss rate for WriteReq accesses
system.cpu.dcache.WriteReq_miss_rate::total     0.031487                       # miss rate for WriteReq accesses
system.cpu.dcache.WriteReq_avg_miss_latency::.cpu.data 45519.089863                       # average WriteReq miss latency
system.cpu.dcache.WriteReq_avg_miss_latency::total 45519.089863                       # average WriteReq miss latency
system.cpu.dcache.WriteReq_mshr_hits::.cpu.data        58435                       # number of WriteReq MSHR hits
system.cpu.dcache.WriteReq_mshr_hits::total        58435                       # number of WriteReq MSHR hits
system.cpu.dcache.WriteReq_mshr_misses::.cpu.data       286355                       # number of WriteReq MSHR misses
system.cpu.dcache.WriteReq_mshr_misses::total       286355                       # number of WriteReq MSHR misses
system.cpu.dcache.WriteReq_mshr_miss_latency::.cpu.data  13821648000                       # number of WriteReq MSHR miss cycles
system.cpu.dcache.WriteReq_mshr_miss_latency::total  13821648000                       # number of WriteReq MSHR miss cycles
system.cpu.dcache.WriteReq_mshr_miss_rate::.cpu.data     0.026150                       # mshr miss rate for WriteReq accesses
system.cpu.dcache.WriteReq_mshr_miss_rate::total     0.026150                       # mshr miss rate for WriteReq accesses
system.cpu.dcache.WriteReq_avg_mshr_miss_latency::.cpu.data 48267.528068                       # average WriteReq mshr miss latency
system.cpu.dcache.WriteReq_avg_mshr_miss_latency::total 48267.528068                       # average WriteReq mshr miss latency
system.cpu.dcache.SoftPFReq_hits::.cpu.data          509                       # number of SoftPFReq hits
system.cpu.dcache.SoftPFReq_hits::total           509                       # number of SoftPFReq hits
system.cpu.dcache.SoftPFReq_misses::.cpu.data         7910                       # number of SoftPFReq misses
system.cpu.dcache.SoftPFReq_misses::total         7910                       # number of SoftPFReq misses
system.cpu.dcache.SoftPFReq_accesses::.cpu.data         8419                       # number of SoftPFReq accesses(hits+misses)
system.cpu.dcache.SoftPFReq_accesses::total         8419                       # number of SoftPFReq accesses(hits+misses)
system.cpu.dcache.SoftPFReq_miss_rate::.cpu.data     0.939542                       # miss rate for SoftPFReq accesses
system.cpu.dcache.SoftPFReq_miss_rate::total     0.939542                       # miss rate for SoftPFReq accesses
system.cpu.dcache.SoftPFReq_mshr_misses::.cpu.data         7905                       # number of SoftPFReq MSHR misses
system.cpu.dcache.SoftPFReq_mshr_misses::total         7905                       # number of SoftPFReq MSHR misses
system.cpu.dcache.SoftPFReq_mshr_miss_latency::.cpu.data    671751999                       # number of SoftPFReq MSHR miss cycles
system.cpu.dcache.SoftPFReq_mshr_miss_latency::total    671751999                       # number of SoftPFReq MSHR miss cycles
system.cpu.dcache.SoftPFReq_mshr_miss_rate::.cpu.data     0.938948                       # mshr miss rate for SoftPFReq accesses
system.cpu.dcache.SoftPFReq_mshr_miss_rate::total     0.938948                       # mshr miss rate for SoftPFReq accesses
system.cpu.dcache.SoftPFReq_avg_mshr_miss_latency::.cpu.data 84978.114991                       # average SoftPFReq mshr miss latency
system.cpu.dcache.SoftPFReq_avg_mshr_miss_latency::total 84978.114991                       # average SoftPFReq mshr miss latency
system.cpu.dcache.LoadLockedReq_hits::.cpu.data           38                       # number of LoadLockedReq hits
system.cpu.dcache.LoadLockedReq_hits::total           38                       # number of LoadLockedReq hits
system.cpu.dcache.LoadLockedReq_accesses::.cpu.data           38                       # number of LoadLockedReq accesses(hits+misses)
system.cpu.dcache.LoadLockedReq_accesses::total           38                       # number of LoadLockedReq accesses(hits+misses)
system.cpu.dcache.StoreCondReq_hits::.cpu.data           38                       # number of StoreCondReq hits
system.cpu.dcache.StoreCondReq_hits::total           38                       # number of StoreCondReq hits
system.cpu.dcache.StoreCondReq_accesses::.cpu.data           38                       # number of StoreCondReq accesses(hits+misses)
system.cpu.dcache.StoreCondReq_accesses::total           38                       # number of StoreCondReq accesses(hits+misses)
system.cpu.dcache.tags.pwrStateResidencyTicks::UNDEFINED  84093845000                       # Cumulative time (in ticks) in various power states
system.cpu.dcache.tags.tagsinuse          1008.171347                       # Cycle average of tags in use
system.cpu.dcache.tags.total_refs            52018203                       # Total number of references to valid blocks.
system.cpu.dcache.tags.sampled_refs            711687                       # Sample count of references to valid blocks.
system.cpu.dcache.tags.avg_refs             73.091405                       # Average number of references to valid blocks.
system.cpu.dcache.tags.warmup_cycle            176500                       # Cycle when the warmup percentage was hit.
system.cpu.dcache.tags.occ_blocks::.cpu.data  1008.171347                       # Average occupied blocks per requestor
system.cpu.dcache.tags.occ_percent::.cpu.data     0.984542                       # Average percentage of cache occupancy
system.cpu.dcache.tags.occ_percent::total     0.984542                       # Average percentage of cache occupancy
system.cpu.dcache.tags.occ_task_id_blocks::1024         1024                       # Occupied blocks per task id
system.cpu.dcache.tags.age_task_id_blocks_1024::0          237                       # Occupied blocks per task id
system.cpu.dcache.tags.age_task_id_blocks_1024::1          431                       # Occupied blocks per task id
system.cpu.dcache.tags.age_task_id_blocks_1024::2          354                       # Occupied blocks per task id
system.cpu.dcache.tags.age_task_id_blocks_1024::3            1                       # Occupied blocks per task id
system.cpu.dcache.tags.age_task_id_blocks_1024::4            1                       # Occupied blocks per task id
system.cpu.dcache.tags.occ_task_id_percent::1024            1                       # Percentage of cache occupancy per task id
system.cpu.dcache.tags.tag_accesses         104866193                       # Number of tag accesses
system.cpu.dcache.tags.data_accesses        104866193                       # Number of data accesses
system.cpu.itb.walker.pwrStateResidencyTicks::UNDEFINED  84093845000                       # Cumulative time (in ticks) in various power states
system.cpu.itb.stage2_mmu.stage2_tlb.walker.pwrStateResidencyTicks::UNDEFINED  84093845000                       # Cumulative time (in ticks) in various power states

---------- End Simulation Statistics   ----------
